<?xml version="1.0" encoding="UTF-8"?>

<!-- generated on 2022-06-25 17:09:37 by Eclipse SUMO netconvert Version 1.13.0
<configuration xmlns:xsi="http://www.w3.org/2001/XMLSchema-instance" xsi:noNamespaceSchemaLocation="http://sumo.dlr.de/xsd/netconvertConfiguration.xsd">

    <input>
        <type-files value="/opt/homebrew/opt/sumo/share/sumo/data/typemap/osmNetconvert.typ.xml"/>
        <osm-files value="osm_bbox.osm.xml.gz"/>
    </input>

    <output>
        <output-file value="osm.net.xml"/>
        <output.street-names value="true"/>
        <output.original-names value="true"/>
    </output>

    <projection>
        <proj.utm value="true"/>
    </projection>

    <processing>
        <geometry.remove value="true"/>
        <roundabouts.guess value="true"/>
        <lefthand value="true"/>
    </processing>

    <tls_building>
        <tls.discard-simple value="true"/>
        <tls.join value="true"/>
        <tls.guess-signals value="true"/>
        <tls.default-type value="actuated"/>
    </tls_building>

    <ramp_guessing>
        <ramps.guess value="true"/>
    </ramp_guessing>

    <junctions>
        <junctions.join value="true"/>
        <junctions.corner-detail value="5"/>
    </junctions>

    <report>
        <verbose value="true"/>
        <aggregate-warnings value="5"/>
    </report>

</configuration>
-->

<net version="1.9" junctionCornerDetail="5" lefthand="true" limitTurnSpeed="5.50" xmlns:xsi="http://www.w3.org/2001/XMLSchema-instance" xsi:noNamespaceSchemaLocation="http://sumo.dlr.de/xsd/net_file.xsd">

    <location netOffset="-699147.74,-5709366.93" convBoundary="0.00,-0.00,1119.59,946.24" origBoundary="-0.130217,51.499908,-0.114565,51.508734" projParameter="+proj=utm +zone=30 +ellps=WGS84 +datum=WGS84 +units=m +no_defs"/>

    <type id="highway.bridleway" priority="1" numLanes="1" speed="2.78" allow="pedestrian" oneway="1" width="2.00"/>
    <type id="highway.bus_guideway" priority="1" numLanes="1" speed="27.78" allow="bus" oneway="1"/>
    <type id="highway.cycleway" priority="1" numLanes="1" speed="8.33" allow="bicycle" oneway="0" width="1.00"/>
    <type id="highway.footway" priority="1" numLanes="1" speed="2.78" allow="pedestrian" oneway="1" width="2.00"/>
    <type id="highway.ford" priority="1" numLanes="1" speed="2.78" allow="army" oneway="0"/>
    <type id="highway.living_street" priority="2" numLanes="1" speed="2.78" disallow="tram rail_urban rail rail_electric rail_fast ship" oneway="0"/>
    <type id="highway.motorway" priority="14" numLanes="2" speed="39.44" allow="private emergency authority army vip passenger hov taxi bus coach delivery truck trailer motorcycle evehicle custom1 custom2" oneway="1"/>
    <type id="highway.motorway_link" priority="9" numLanes="1" speed="22.22" allow="private emergency authority army vip passenger hov taxi bus coach delivery truck trailer motorcycle evehicle custom1 custom2" oneway="1"/>
    <type id="highway.path" priority="1" numLanes="1" speed="2.78" allow="pedestrian bicycle" oneway="0" width="2.00"/>
    <type id="highway.pedestrian" priority="1" numLanes="1" speed="2.78" allow="pedestrian" oneway="1" width="2.00"/>
    <type id="highway.primary" priority="12" numLanes="2" speed="27.78" disallow="tram rail_urban rail rail_electric rail_fast ship" oneway="0"/>
    <type id="highway.primary_link" priority="7" numLanes="1" speed="22.22" disallow="tram rail_urban rail rail_electric rail_fast ship" oneway="0"/>
    <type id="highway.raceway" priority="15" numLanes="2" speed="83.33" allow="vip" oneway="0"/>
    <type id="highway.residential" priority="3" numLanes="1" speed="13.89" disallow="tram rail_urban rail rail_electric rail_fast ship" oneway="0"/>
    <type id="highway.secondary" priority="11" numLanes="1" speed="27.78" disallow="tram rail_urban rail rail_electric rail_fast ship" oneway="0"/>
    <type id="highway.secondary_link" priority="6" numLanes="1" speed="22.22" disallow="tram rail_urban rail rail_electric rail_fast ship" oneway="0"/>
    <type id="highway.service" priority="1" numLanes="1" speed="5.56" allow="pedestrian delivery bicycle" oneway="0"/>
    <type id="highway.stairs" priority="1" numLanes="1" speed="1.39" allow="pedestrian" oneway="1" width="2.00"/>
    <type id="highway.step" priority="1" numLanes="1" speed="1.39" allow="pedestrian" oneway="1" width="2.00"/>
    <type id="highway.steps" priority="1" numLanes="1" speed="1.39" allow="pedestrian" oneway="1" width="2.00"/>
    <type id="highway.tertiary" priority="10" numLanes="1" speed="22.22" disallow="tram rail_urban rail rail_electric rail_fast ship" oneway="0"/>
    <type id="highway.tertiary_link" priority="5" numLanes="1" speed="22.22" disallow="tram rail_urban rail rail_electric rail_fast ship" oneway="0"/>
    <type id="highway.track" priority="1" numLanes="1" speed="5.56" allow="pedestrian motorcycle moped bicycle" oneway="0"/>
    <type id="highway.trunk" priority="13" numLanes="2" speed="27.78" disallow="pedestrian bicycle tram rail_urban rail rail_electric rail_fast ship" oneway="0"/>
    <type id="highway.trunk_link" priority="8" numLanes="1" speed="22.22" disallow="pedestrian bicycle tram rail_urban rail rail_electric rail_fast ship" oneway="0"/>
    <type id="highway.unclassified" priority="4" numLanes="1" speed="13.89" disallow="tram rail_urban rail rail_electric rail_fast ship" oneway="0"/>
    <type id="highway.unsurfaced" priority="1" numLanes="1" speed="8.33" disallow="tram rail_urban rail rail_electric rail_fast ship" oneway="0"/>
    <type id="railway.highspeed" priority="21" numLanes="1" speed="69.44" allow="rail_fast" oneway="1"/>
    <type id="railway.light_rail" priority="19" numLanes="1" speed="27.78" allow="rail_urban" oneway="1"/>
    <type id="railway.preserved" priority="16" numLanes="1" speed="27.78" allow="rail" oneway="1"/>
    <type id="railway.rail" priority="20" numLanes="1" speed="44.44" allow="rail" oneway="1"/>
    <type id="railway.subway" priority="18" numLanes="1" speed="27.78" allow="rail_urban" oneway="1"/>
    <type id="railway.tram" priority="17" numLanes="1" speed="13.89" allow="tram" oneway="1"/>

    <edge id=":107770_0" function="internal">
        <lane id=":107770_0_0" index="0" disallow="tram rail_urban rail rail_electric rail_fast ship" speed="8.94" length="4.45" shape="189.45,771.30 188.00,770.52 186.98,770.02 185.93,769.58 184.38,768.99"/>
        <lane id=":107770_0_1" index="1" disallow="tram rail_urban rail rail_electric rail_fast ship" speed="8.94" length="4.45" shape="187.50,773.88 186.33,773.26 185.52,772.86 184.68,772.52 183.44,772.05"/>
        <lane id=":107770_0_2" index="2" disallow="tram rail_urban rail rail_electric rail_fast ship" speed="8.94" length="4.45" shape="185.56,776.47 184.69,776.01 184.08,775.72 183.46,775.48 182.54,775.13"/>
    </edge>
    <edge id=":107773_0" function="internal">
        <lane id=":107773_0_0" index="0" disallow="tram rail_urban rail rail_electric rail_fast ship" speed="8.94" length="3.31" shape="198.71,813.94 199.62,813.28 200.25,812.83 200.85,812.35 201.71,811.61"/>
        <lane id=":107773_0_1" index="1" disallow="tram rail_urban rail rail_electric rail_fast ship" speed="8.94" length="3.31" shape="196.81,811.36 197.67,810.86 198.34,810.62 198.95,810.32 199.64,809.64"/>
        <lane id=":107773_0_2" index="2" disallow="tram rail_urban rail rail_electric rail_fast ship" speed="8.94" length="3.31" shape="194.91,808.79 195.63,808.39 196.20,808.22 196.72,808.00 197.30,807.45"/>
    </edge>
    <edge id=":107774_0" function="internal">
        <lane id=":107774_0_0" index="0" disallow="tram rail_urban rail rail_electric rail_fast ship" speed="8.94" length="16.32" shape="146.96,810.85 151.48,811.82 154.48,812.88 157.38,814.26 161.60,816.23"/>
        <lane id=":107774_0_1" index="1" disallow="tram rail_urban rail rail_electric rail_fast ship" speed="8.94" length="16.32" shape="147.57,807.71 152.30,808.72 155.43,809.81 158.46,811.25 162.88,813.29"/>
        <lane id=":107774_0_2" index="2" disallow="tram rail_urban rail rail_electric rail_fast ship" speed="8.94" length="16.32" shape="147.57,807.71 152.57,808.27 156.08,808.32 159.48,808.74 164.16,810.36"/>
    </edge>
    <edge id=":107774_3" function="internal">
        <lane id=":107774_3_0" index="0" disallow="tram rail_urban rail rail_electric rail_fast ship" speed="8.94" length="14.03" shape="151.95,803.13 154.01,807.16 156.01,809.64 158.72,811.40 162.88,813.29"/>
        <lane id=":107774_3_1" index="1" disallow="tram rail_urban rail rail_electric rail_fast ship" speed="8.94" length="14.03" shape="154.48,800.95 156.30,804.63 158.05,806.95 160.43,808.62 164.16,810.36"/>
        <lane id=":107774_3_2" index="2" disallow="tram rail_urban rail rail_electric rail_fast ship" speed="8.94" length="14.03" shape="157.00,798.78 158.60,802.11 160.08,804.26 162.13,805.83 165.43,807.43"/>
    </edge>
    <edge id=":107780_0" function="internal">
        <lane id=":107780_0_0" index="0" disallow="tram rail_urban rail rail_electric rail_fast ship" speed="8.94" length="4.87" shape="257.78,864.23 254.04,861.00"/>
        <lane id=":107780_0_1" index="1" disallow="tram rail_urban rail rail_electric rail_fast ship" speed="8.94" length="4.87" shape="255.65,866.61 252.01,863.48"/>
    </edge>
    <edge id=":1239525705_0" function="internal">
        <lane id=":1239525705_0_0" index="0" disallow="tram rail_urban rail rail_electric rail_fast ship" speed="5.85" length="9.61" shape="150.21,737.94 148.47,740.01 146.68,740.61 144.84,739.76 142.96,737.45"/>
    </edge>
    <edge id=":1239525705_1" function="internal">
        <lane id=":1239525705_1_0" index="0" disallow="tram rail_urban rail rail_electric rail_fast ship" speed="3.66" length="4.71" shape="150.21,737.94 150.06,739.38 150.41,740.21 151.29,740.42 152.69,740.01"/>
    </edge>
    <edge id=":1239525705_2" function="internal">
        <lane id=":1239525705_2_0" index="0" disallow="tram rail_urban rail rail_electric rail_fast ship" speed="7.92" length="11.42" shape="149.44,750.48 148.90,749.08 149.26,746.87 150.52,743.85 152.69,740.01"/>
    </edge>
    <edge id=":1239525705_3" function="internal">
        <lane id=":1239525705_3_0" index="0" disallow="tram rail_urban rail rail_electric rail_fast ship" speed="8.94" length="14.63" shape="149.44,750.48 147.30,747.55 145.87,744.23 144.59,740.77 142.96,737.45"/>
    </edge>
    <edge id=":1274040745_0" function="internal">
        <lane id=":1274040745_0_0" index="0" disallow="tram rail_urban rail rail_electric rail_fast ship" speed="6.39" length="6.32" shape="209.76,811.27 209.00,810.16 207.87,808.49 206.95,806.85 206.83,805.78"/>
        <lane id=":1274040745_0_1" index="1" disallow="tram rail_urban rail rail_electric rail_fast ship" speed="7.98" length="10.27" shape="207.21,813.26 205.38,809.81 204.29,807.07 203.95,805.05 204.36,803.75"/>
    </edge>
    <edge id=":1274040745_2" function="internal">
        <lane id=":1274040745_2_0" index="0" disallow="tram rail_urban rail rail_electric rail_fast ship" speed="8.94" length="7.36" shape="201.86,811.48 203.49,809.94 204.50,808.79 205.44,807.55 206.83,805.78"/>
        <lane id=":1274040745_2_1" index="1" disallow="tram rail_urban rail rail_electric rail_fast ship" speed="8.94" length="7.36" shape="199.77,809.49 204.36,803.75"/>
        <lane id=":1274040745_2_2" index="2" disallow="tram rail_urban rail rail_electric rail_fast ship" speed="8.94" length="7.36" shape="197.42,807.30 201.90,801.71"/>
    </edge>
    <edge id=":1778602809_0" function="internal">
        <lane id=":1778602809_0_0" index="0" allow="rail_urban" speed="27.78" length="2.79" shape="221.74,786.71 224.48,786.19"/>
    </edge>
    <edge id=":2058516819_0" function="internal">
        <lane id=":2058516819_0_0" index="0" disallow="tram rail_urban rail rail_electric rail_fast ship" speed="3.65" length="4.67" shape="54.04,679.46 54.05,680.90 54.49,681.68 55.38,681.79 56.71,681.23"/>
    </edge>
    <edge id=":25504189_0" function="internal">
        <lane id=":25504189_0_0" index="0" disallow="tram rail_urban rail rail_electric rail_fast ship" speed="8.94" length="14.52" shape="177.16,821.64 181.30,822.81 184.13,823.70 186.84,824.87 190.61,826.93"/>
        <lane id=":25504189_0_1" index="1" disallow="tram rail_urban rail rail_electric rail_fast ship" speed="8.94" length="15.23" shape="178.05,818.56 182.40,819.80 185.36,820.73 188.20,821.97 192.16,824.12"/>
    </edge>
    <edge id=":25504189_2" function="internal">
        <lane id=":25504189_2_0" index="0" disallow="tram rail_urban rail rail_electric rail_fast ship" speed="8.94" length="15.38" shape="178.05,818.56 182.54,819.71 185.78,819.95 188.98,819.24 193.32,817.57"/>
        <lane id=":25504189_2_1" index="1" disallow="tram rail_urban rail rail_electric rail_fast ship" speed="8.94" length="15.38" shape="178.94,815.49 182.95,816.27 186.73,816.20 190.30,815.30 193.65,813.57"/>
        <lane id=":25504189_2_2" index="2" disallow="tram rail_urban rail rail_electric rail_fast ship" speed="8.94" length="15.38" shape="179.83,812.42 183.45,813.02 187.01,812.73 190.53,811.55 193.99,809.46"/>
    </edge>
    <edge id=":25504190_0" function="internal">
        <lane id=":25504190_0_0" index="0" disallow="tram rail_urban rail rail_electric rail_fast ship" speed="8.94" length="17.98" shape="153.44,778.23 150.71,782.82 148.63,785.95 145.92,788.39 141.35,790.93"/>
        <lane id=":25504190_0_1" index="1" disallow="tram rail_urban rail rail_electric rail_fast ship" speed="8.94" length="18.59" shape="153.44,778.23 150.99,783.22 149.65,787.02 147.73,790.22 143.53,793.40"/>
    </edge>
    <edge id=":25504190_2" function="internal">
        <lane id=":25504190_2_0" index="0" disallow="tram rail_urban rail rail_electric rail_fast ship" speed="8.94" length="17.82" shape="153.44,778.23 151.09,782.84 149.73,787.48 149.37,792.16 150.01,796.87"/>
        <lane id=":25504190_2_1" index="1" disallow="tram rail_urban rail rail_electric rail_fast ship" speed="8.94" length="17.82" shape="156.16,779.91 154.11,784.01 152.97,788.26 152.72,792.66 153.38,797.20"/>
        <lane id=":25504190_2_2" index="2" disallow="tram rail_urban rail rail_electric rail_fast ship" speed="8.94" length="17.82" shape="158.88,781.60 157.13,785.16 156.17,788.92 156.00,792.88 156.63,797.04"/>
    </edge>
    <edge id=":25504191_0" function="internal">
        <lane id=":25504191_0_0" index="0" disallow="tram rail_urban rail rail_electric rail_fast ship" speed="8.94" length="5.13" shape="169.51,766.19 168.03,766.04 167.04,765.71 166.15,765.11 164.95,764.18"/>
    </edge>
    <edge id=":25504191_1" function="internal">
        <lane id=":25504191_1_0" index="0" disallow="tram rail_urban rail rail_electric rail_fast ship" speed="8.94" length="5.32" shape="169.51,766.19 167.82,766.34 166.74,766.88 165.72,767.70 164.21,768.68"/>
        <lane id=":25504191_1_1" index="1" disallow="tram rail_urban rail rail_electric rail_fast ship" speed="8.94" length="5.32" shape="169.39,769.39 167.93,769.57 167.05,770.17 166.22,771.01 164.92,771.92"/>
        <lane id=":25504191_1_2" index="2" disallow="tram rail_urban rail rail_electric rail_fast ship" speed="8.94" length="5.32" shape="169.26,772.58 168.03,772.80 167.35,773.45 166.72,774.31 165.63,775.16"/>
    </edge>
    <edge id=":25504259_0" function="internal">
        <lane id=":25504259_0_0" index="0" disallow="tram rail_urban rail rail_electric rail_fast ship" speed="8.94" length="9.58" shape="203.10,707.89 200.12,717.03"/>
        <lane id=":25504259_0_1" index="1" disallow="tram rail_urban rail rail_electric rail_fast ship" speed="8.94" length="9.58" shape="206.13,708.91 203.17,717.99"/>
    </edge>
    <edge id=":25504259_2" function="internal">
        <lane id=":25504259_2_0" index="0" allow="pedestrian delivery bicycle" speed="7.25" length="3.00" shape="206.13,708.91 205.78,711.89"/>
    </edge>
    <edge id=":25504259_9" function="internal">
        <lane id=":25504259_9_0" index="0" allow="pedestrian delivery bicycle" speed="7.25" length="10.26" shape="205.78,711.89 206.88,714.38 209.44,716.38 213.45,717.90"/>
    </edge>
    <edge id=":25504259_3" function="internal">
        <lane id=":25504259_3_0" index="0" allow="pedestrian delivery bicycle" speed="4.98" length="5.08" shape="214.28,714.80 212.99,714.25 212.21,713.42 211.95,712.32 212.20,710.94"/>
    </edge>
    <edge id=":25504259_4" function="internal">
        <lane id=":25504259_4_0" index="0" allow="pedestrian delivery bicycle" speed="7.25" length="12.86" shape="214.28,714.80 210.09,714.07 206.84,714.36 204.54,715.66 203.17,717.99"/>
    </edge>
    <edge id=":25504259_5" function="internal">
        <lane id=":25504259_5_0" index="0" allow="pedestrian delivery bicycle" speed="3.65" length="4.67" shape="214.28,714.80 212.91,715.27 212.32,715.94 212.50,716.81 213.45,717.90"/>
    </edge>
    <edge id=":25504259_6" function="internal">
        <lane id=":25504259_6_0" index="0" allow="pedestrian delivery bicycle" speed="5.21" length="5.23" shape="209.28,719.91 209.88,718.70 210.78,717.96 211.97,717.69 213.45,717.90"/>
    </edge>
    <edge id=":25504259_7" function="internal">
        <lane id=":25504259_7_0" index="0" disallow="tram rail_urban rail rail_electric rail_fast ship" speed="8.94" length="9.47" shape="209.28,719.91 212.20,710.94"/>
        <lane id=":25504259_7_1" index="1" disallow="tram rail_urban rail rail_electric rail_fast ship" speed="8.94" length="9.47" shape="206.23,718.95 209.16,709.92"/>
    </edge>
    <edge id=":25504261_0" function="internal">
        <lane id=":25504261_0_0" index="0" allow="pedestrian delivery bicycle" speed="3.65" length="4.67" shape="259.87,713.09 259.53,711.69 258.92,711.04 258.03,711.14 256.86,711.99"/>
    </edge>
    <edge id=":25507047_0" function="internal">
        <lane id=":25507047_0_0" index="0" disallow="tram rail_urban rail rail_electric rail_fast ship" speed="6.40" length="9.04" shape="169.01,681.34 168.07,683.65 166.62,685.07 164.66,685.59 162.20,685.21"/>
    </edge>
    <edge id=":25507047_1" function="internal">
        <lane id=":25507047_1_0" index="0" disallow="tram rail_urban rail rail_electric rail_fast ship" speed="8.94" length="14.48" shape="169.01,681.34 165.17,695.30"/>
    </edge>
    <edge id=":25507047_2" function="internal">
        <lane id=":25507047_2_0" index="0" disallow="tram rail_urban rail rail_electric rail_fast ship" speed="3.65" length="4.67" shape="169.01,681.34 169.50,682.70 170.18,683.28 171.05,683.09 172.12,682.12"/>
    </edge>
    <edge id=":25507047_3" function="internal">
        <lane id=":25507047_3_0" index="0" disallow="tram rail_urban rail rail_electric rail_fast ship" speed="8.94" length="14.63" shape="168.24,696.23 172.12,682.12"/>
    </edge>
    <edge id=":25507047_4" function="internal">
        <lane id=":25507047_4_0" index="0" disallow="tram rail_urban rail rail_electric rail_fast ship" speed="8.04" length="14.32" shape="168.24,696.23 168.81,692.38 168.00,689.26 165.79,686.87 162.20,685.21"/>
    </edge>
    <edge id=":25507047_5" function="internal">
        <lane id=":25507047_5_0" index="0" disallow="tram rail_urban rail rail_electric rail_fast ship" speed="3.65" length="4.67" shape="168.24,696.23 167.82,694.85 167.17,694.24 166.29,694.39 165.17,695.30"/>
    </edge>
    <edge id=":25507047_6" function="internal">
        <lane id=":25507047_6_0" index="0" disallow="tram rail_urban rail rail_electric rail_fast ship" speed="6.55" length="9.16" shape="161.27,688.28 163.59,689.34 165.01,690.87 165.54,692.86 165.17,695.30"/>
    </edge>
    <edge id=":25507047_7" function="internal">
        <lane id=":25507047_7_0" index="0" disallow="tram rail_urban rail rail_electric rail_fast ship" speed="7.91" length="14.38" shape="161.27,688.28 165.20,688.87 168.31,688.05 170.62,685.79 172.12,682.12"/>
    </edge>
    <edge id=":25507047_8" function="internal">
        <lane id=":25507047_8_0" index="0" disallow="tram rail_urban rail rail_electric rail_fast ship" speed="3.65" length="4.67" shape="161.27,688.28 162.65,687.86 163.27,687.21 163.12,686.33 162.20,685.21"/>
    </edge>
    <edge id=":256794570_0" function="internal">
        <lane id=":256794570_0_0" index="0" disallow="tram rail_urban rail rail_electric rail_fast ship" speed="8.89" length="9.03" shape="180.61,762.43 178.73,764.19 177.01,765.43 175.44,766.16 174.03,766.37"/>
        <lane id=":256794570_0_1" index="1" disallow="tram rail_urban rail rail_electric rail_fast ship" speed="8.94" length="9.03" shape="182.69,764.88 180.38,766.99 178.14,768.47 175.99,769.33 173.91,769.56"/>
    </edge>
    <edge id=":256794570_2" function="internal">
        <lane id=":256794570_2_0" index="0" disallow="tram rail_urban rail rail_electric rail_fast ship" speed="8.94" length="9.73" shape="184.13,768.89 181.23,767.76 179.21,767.02 177.12,766.59 174.03,766.37"/>
        <lane id=":256794570_2_1" index="1" disallow="tram rail_urban rail rail_electric rail_fast ship" speed="8.94" length="9.73" shape="183.26,771.99 180.57,770.92 178.70,770.21 176.77,769.78 173.91,769.56"/>
        <lane id=":256794570_2_2" index="2" disallow="tram rail_urban rail rail_electric rail_fast ship" speed="8.94" length="9.73" shape="182.35,775.06 179.88,774.07 178.17,773.39 176.41,772.97 173.78,772.76"/>
    </edge>
    <edge id=":256794571_0" function="internal">
        <lane id=":256794571_0_0" index="0" disallow="tram rail_urban rail rail_electric rail_fast ship" speed="8.94" length="10.76" shape="198.35,778.84 196.66,776.28 196.13,774.18 196.19,771.87 196.28,768.66"/>
        <lane id=":256794571_0_1" index="1" disallow="tram rail_urban rail rail_electric rail_fast ship" speed="8.94" length="11.69" shape="198.35,778.84 196.04,776.23 194.43,774.32 193.45,772.18 193.08,768.85"/>
    </edge>
    <edge id=":256794571_2" function="internal">
        <lane id=":256794571_2_0" index="0" disallow="tram rail_urban rail rail_electric rail_fast ship" speed="8.94" length="10.82" shape="198.35,778.84 196.17,776.18 194.53,774.47 192.61,773.08 189.63,771.39"/>
        <lane id=":256794571_2_1" index="1" disallow="tram rail_urban rail rail_electric rail_fast ship" speed="8.94" length="10.82" shape="195.87,780.86 193.83,778.39 192.27,776.81 190.47,775.54 187.67,773.97"/>
        <lane id=":256794571_2_2" index="2" disallow="tram rail_urban rail rail_electric rail_fast ship" speed="8.94" length="10.82" shape="193.38,782.87 191.48,780.59 190.02,779.16 188.33,778.00 185.73,776.56"/>
    </edge>
    <edge id=":256794572_0" function="internal">
        <lane id=":256794572_0_0" index="0" disallow="tram rail_urban rail rail_electric rail_fast ship" speed="8.94" length="2.17" shape="194.29,735.54 194.13,736.26 194.13,736.77 194.19,737.30 194.18,738.05"/>
        <lane id=":256794572_0_1" index="1" disallow="tram rail_urban rail rail_electric rail_fast ship" speed="8.94" length="2.17" shape="197.34,736.50 197.24,737.02 197.28,737.39 197.36,737.76 197.37,738.30"/>
    </edge>
    <edge id=":256794572_2" function="internal">
        <lane id=":256794572_2_0" index="0" disallow="tram rail_urban rail rail_electric rail_fast ship" speed="8.94" length="0.73" shape="203.36,738.77 203.45,738.42"/>
        <lane id=":256794572_2_1" index="1" disallow="tram rail_urban rail rail_electric rail_fast ship" speed="8.94" length="0.73" shape="200.12,738.52 200.40,737.46"/>
    </edge>
    <edge id=":256794574_0" function="internal">
        <lane id=":256794574_0_0" index="0" disallow="tram rail_urban rail rail_electric rail_fast ship" speed="8.94" length="3.99" shape="196.27,768.37 196.26,767.36 196.30,766.66 196.43,765.98 196.67,764.99"/>
        <lane id=":256794574_0_1" index="1" disallow="tram rail_urban rail rail_electric rail_fast ship" speed="8.94" length="3.99" shape="193.08,768.72 193.06,767.37 193.10,766.44 193.25,765.52 193.57,764.20"/>
    </edge>
    <edge id=":256794576_0" function="internal">
        <lane id=":256794576_0_0" index="0" disallow="tram rail_urban rail rail_electric rail_fast ship" speed="8.94" length="10.28" shape="121.29,757.68 131.38,755.75"/>
    </edge>
    <edge id=":256794579_0" function="internal">
        <lane id=":256794579_0_0" index="0" disallow="tram rail_urban rail rail_electric rail_fast ship" speed="8.94" length="2.91" shape="141.77,751.99 140.90,755.34"/>
        <lane id=":256794579_0_1" index="1" disallow="tram rail_urban rail rail_electric rail_fast ship" speed="8.94" length="2.91" shape="141.77,751.99 142.11,752.55 142.54,752.80 143.01,753.02 143.51,753.49"/>
    </edge>
    <edge id=":256794580_0" function="internal">
        <lane id=":256794580_0_0" index="0" disallow="tram rail_urban rail rail_electric rail_fast ship" speed="8.94" length="5.35" shape="148.98,766.03 149.80,767.34 150.33,768.24 150.83,769.17 151.51,770.55"/>
        <lane id=":256794580_0_1" index="1" disallow="tram rail_urban rail rail_electric rail_fast ship" speed="8.94" length="5.35" shape="151.69,764.33 152.56,765.72 153.13,766.69 153.66,767.68 154.38,769.15"/>
    </edge>
    <edge id=":256794581_0" function="internal">
        <lane id=":256794581_0_0" index="0" disallow="tram rail_urban rail rail_electric rail_fast ship" speed="8.94" length="5.21" shape="162.33,762.29 161.07,761.39 160.23,760.75 159.43,760.06 158.29,759.02"/>
    </edge>
    <edge id=":256794582_0" function="internal">
        <lane id=":256794582_0_0" index="0" disallow="tram rail_urban rail rail_electric rail_fast ship" speed="8.94" length="5.74" shape="138.65,792.22 137.21,792.91 136.20,793.32 135.15,793.63 133.60,793.99"/>
        <lane id=":256794582_0_1" index="1" disallow="tram rail_urban rail rail_electric rail_fast ship" speed="8.94" length="5.74" shape="140.03,795.11 138.39,795.88 137.24,796.36 136.05,796.71 134.29,797.11"/>
    </edge>
    <edge id=":256794584_0" function="internal">
        <lane id=":256794584_0_0" index="0" disallow="tram rail_urban rail rail_electric rail_fast ship" speed="8.94" length="6.22" shape="221.18,787.22 219.42,787.47 218.20,787.61 216.98,787.68 215.19,787.73"/>
        <lane id=":256794584_0_1" index="1" disallow="tram rail_urban rail rail_electric rail_fast ship" speed="8.94" length="6.22" shape="221.66,790.38 219.78,790.66 218.49,790.80 217.19,790.87 215.29,790.93"/>
    </edge>
    <edge id=":26630792_0" function="internal">
        <lane id=":26630792_0_0" index="0" disallow="tram rail_urban rail rail_electric rail_fast ship" speed="6.68" length="15.64" shape="70.68,684.46 64.35,685.35 60.87,686.80 60.24,688.79 62.47,691.35"/>
    </edge>
    <edge id=":26671717_0" function="internal">
        <lane id=":26671717_0_0" index="0" disallow="tram rail_urban rail rail_electric rail_fast ship" speed="8.94" length="3.41" shape="150.26,797.94 150.62,799.47 150.89,800.51 151.24,801.51 151.87,802.94"/>
        <lane id=":26671717_0_1" index="1" disallow="tram rail_urban rail rail_electric rail_fast ship" speed="8.94" length="3.41" shape="153.41,797.35 153.64,798.38 153.78,799.10 153.99,799.80 154.39,800.77"/>
        <lane id=":26671717_0_2" index="2" disallow="tram rail_urban rail rail_electric rail_fast ship" speed="8.94" length="3.41" shape="156.68,797.24 156.74,797.65 156.75,797.94 156.78,798.22 156.92,798.60"/>
    </edge>
    <edge id=":26671718_0" function="internal">
        <lane id=":26671718_0_0" index="0" disallow="tram rail_urban rail rail_electric rail_fast ship" speed="8.94" length="14.57" shape="213.47,787.78 209.83,787.54 206.60,786.59 203.77,784.92 201.35,782.54"/>
        <lane id=":26671718_0_1" index="1" disallow="tram rail_urban rail rail_electric rail_fast ship" speed="8.94" length="14.57" shape="212.28,791.02 208.45,790.70 204.94,789.52 201.74,787.47 198.87,784.56"/>
    </edge>
    <edge id=":26671718_2" function="internal">
        <lane id=":26671718_2_0" index="0" disallow="tram rail_urban rail rail_electric rail_fast ship" speed="8.94" length="14.60" shape="207.12,796.69 206.26,792.15 205.48,789.03 204.07,786.20 201.35,782.54"/>
        <lane id=":26671718_2_1" index="1" disallow="tram rail_urban rail rail_electric rail_fast ship" speed="8.94" length="14.60" shape="204.14,798.15 203.36,793.80 202.69,790.79 201.43,788.06 198.87,784.56"/>
        <lane id=":26671718_2_2" index="2" disallow="tram rail_urban rail rail_electric rail_fast ship" speed="8.94" length="14.60" shape="201.03,798.88 200.34,794.95 199.77,792.22 198.67,789.74 196.38,786.57"/>
    </edge>
    <edge id=":26671719_0" function="internal">
        <lane id=":26671719_0_0" index="0" disallow="tram rail_urban rail rail_electric rail_fast ship" speed="8.94" length="8.78" shape="159.74,771.51 157.64,773.21 156.23,774.43 155.03,775.82 153.55,778.06"/>
        <lane id=":26671719_0_1" index="1" disallow="tram rail_urban rail rail_electric rail_fast ship" speed="8.94" length="8.78" shape="162.31,773.53 160.28,775.15 158.90,776.29 157.70,777.61 156.26,779.74"/>
        <lane id=":26671719_0_2" index="2" disallow="tram rail_urban rail rail_electric rail_fast ship" speed="8.94" length="8.78" shape="164.89,775.55 162.72,776.79 161.38,777.89 160.31,779.29 158.98,781.43"/>
    </edge>
    <edge id=":26671719_3" function="internal">
        <lane id=":26671719_3_0" index="0" disallow="tram rail_urban rail rail_electric rail_fast ship" speed="7.76" length="8.68" shape="151.68,770.90 152.83,773.49 153.53,775.54 153.77,777.06 153.55,778.06"/>
        <lane id=":26671719_3_1" index="1" disallow="tram rail_urban rail rail_electric rail_fast ship" speed="8.73" length="8.68" shape="154.98,770.37 156.24,773.35 156.87,775.90 156.88,778.04 156.26,779.74"/>
    </edge>
    <edge id=":26671720_0" function="internal">
        <lane id=":26671720_0_0" index="0" disallow="tram rail_urban rail rail_electric rail_fast ship" speed="8.94" length="5.35" shape="135.52,809.46 137.06,809.50 138.11,809.55 139.15,809.65 140.68,809.84"/>
        <lane id=":26671720_0_1" index="1" disallow="tram rail_urban rail rail_electric rail_fast ship" speed="8.94" length="5.35" shape="135.58,806.27 137.22,806.30 138.34,806.35 139.46,806.46 141.09,806.67"/>