<?xml version="1.0" encoding="UTF-8"?>

<!-- generated on 2022-06-25 17:09:37 by Eclipse SUMO polyconvert Version 1.13.0
<configuration xmlns:xsi="http://www.w3.org/2001/XMLSchema-instance" xsi:noNamespaceSchemaLocation="http://sumo.dlr.de/xsd/polyconvertConfiguration.xsd">

    <input>
        <net-file value="osm.net.xml"/>
        <osm-files value="osm_bbox.osm.xml.gz"/>
        <osm.keep-full-type value="true"/>
        <type-file value="/opt/homebrew/opt/sumo/share/sumo/data/typemap/osmPolyconvert.typ.xml"/>
    </input>

    <output>
        <output-file value="osm.poly.xml"/>
    </output>

    <processing>
        <poi-layer-offset value="5"/>
    </processing>

    <report>
        <verbose value="true"/>
    </report>

</configuration>
-->

<additional xmlns:xsi="http://www.w3.org/2001/XMLSchema-instance" xsi:noNamespaceSchemaLocation="http://sumo.dlr.de/xsd/additional_file.xsd">
    <location netOffset="-699147.74,-5709366.93" convBoundary="0.00,-0.00,1119.59,946.24" origBoundary="-0.130217,51.499908,-0.114565,51.508734" projParameter="+proj=utm +zone=30 +ellps=WGS84 +datum=WGS84 +units=m +no_defs"/>

    <poly id="1012865718" type="building.yes" color="255,230,230" fill="1" layer="-1.00" shape="222.432299,864.388940 223.090662,860.896027 224.870211,861.233177 224.204909,864.725817 222.432299,864.388940"/>
    <poly id="1012865718#1" type="shop.kiosk" color="237,199,255" fill="1" layer="-1.00" shape="222.432299,864.388940 223.090662,860.896027 224.870211,861.233177 224.204909,864.725817 222.432299,864.388940"/>
    <poly id="1012865719" type="building.yes" color="255,230,230" fill="1" layer="-1.00" shape="228.616705,866.335578 229.491066,864.243070 233.052532,865.741485 232.178607,867.822874 228.616705,866.335578"/>
    <poly id="1012865719#1" type="shop.kiosk" color="237,199,255" fill="1" layer="-1.00" shape="228.616705,866.335578 229.491066,864.243070 233.052532,865.741485 232.178607,867.822874 228.616705,866.335578"/>
    <poly id="107945685" type="building.yes" color="255,230,230" fill="1" layer="-1.00" shape="159.272992,748.873504 167.945149,751.708352 166.968768,754.275683 170.954389,755.946599 173.540997,756.259744 175.508355,756.593114 177.540578,755.982527 179.529321,754.178751 180.412360,752.042035 181.591458,748.736598 182.631712,748.966751 190.831538,726.316542 164.140456,716.760990 158.801179,732.396935 158.392803,733.594652 163.847127,735.557074 159.272992,748.873504"/>
    <poly id="140469329" type="amenity.theatre" color="237,199,199" fill="1" layer="-1.00" shape="198.822404,703.680406 197.813396,706.547106 200.850826,707.590631 197.517111,716.568422 194.850861,715.628558 193.833704,718.172013 185.747667,715.805555 168.019309,705.755683 172.615843,689.923549 190.422892,697.793995 189.982244,699.636294 198.822404,703.680406"/>
    <poly id="140469329#1" type="building.yes" color="255,230,230" fill="1" layer="-1.00" shape="198.822404,703.680406 197.813396,706.547106 200.850826,707.590631 197.517111,716.568422 194.850861,715.628558 193.833704,718.172013 185.747667,715.805555 168.019309,705.755683 172.615843,689.923549 190.422892,697.793995 189.982244,699.636294 198.822404,703.680406"/>
    <poly id="140469338" type="building.yes" color="255,230,230" fill="1" layer="-1.00" shape="193.833704,718.172013 190.831538,726.316542 164.140456,716.760990 168.019309,705.755683 185.747667,715.805555 193.833704,718.172013"/>
    <poly id="140469340" type="amenity.pub" color="237,199,199" fill="1" layer="-1.00" shape="203.650236,689.215890 198.822404,703.680406 189.982244,699.636294 190.422892,697.793995 172.615843,689.923549 175.328130,680.843394 175.776491,679.335458 188.378980,683.660916 192.385078,685.165619 203.650236,689.215890"/>
    <poly id="140469340#1" type="building.yes" color="255,230,230" fill="1" layer="-1.00" shape="203.650236,689.215890 198.822404,703.680406 189.982244,699.636294 190.422892,697.793995 172.615843,689.923549 175.328130,680.843394 175.776491,679.335458 188.378980,683.660916 192.385078,685.165619 203.650236,689.215890"/>
    <poly id="140515792" type="building.yes" color="255,230,230" fill="1" layer="-1.00" shape="252.896015,704.835576 242.588414,700.822806 241.168799,704.942799 239.338979,704.291883 232.761171,701.917783 232.297755,702.924033 223.243157,699.739996 222.097744,703.425350 221.048256,706.791547 219.822593,710.573968 218.631138,714.547034 231.702014,718.267424 246.751884,722.555547 252.896015,704.835576"/>
    <poly id="140515795" type="building.commercial" color="255,230,230" fill="1" layer="-1.00" shape="255.348977,699.353124 255.873969,698.371566 259.008892,691.980535 254.411509,689.784428 244.865884,685.478664 232.294354,679.127643 228.732045,686.492948 227.285853,689.520636 234.657024,692.749907 237.952683,693.057528 238.455547,692.108505 239.965335,692.769121 255.348977,699.353124"/>
    <poly id="150915494" type="natural.water" color="181,209,209" fill="1" layer="-4.00" shape="159.881918,873.167907 159.737244,874.197813 160.137869,876.028607 160.868950,877.761024 162.019077,878.908587 163.062265,879.417236 161.921242,883.169584 165.609874,884.260937 165.453268,886.125527 165.996581,887.861706 167.223753,889.524523 168.950171,890.683583 169.666490,890.845337 171.099564,891.157727 173.497705,890.606053 175.380438,889.377154 176.566501,887.486181 179.822397,888.449197 180.998172,884.520051 183.108218,884.580647 185.089691,883.845584 186.341501,882.580775 186.961948,881.291170 187.292402,879.600439 186.747057,877.385357 185.514260,875.688909 183.837620,874.854723 184.901857,871.288664 181.274788,870.221985 181.610092,868.230790 181.161731,866.554014 179.966191,864.970384 178.253206,863.822984 176.045677,863.413366 173.794144,863.770361 172.454805,864.786758 171.514772,866.074950 171.067391,867.204322 167.014520,866.009580 166.126509,868.981253 164.466948,869.127655 162.695410,869.648263 161.157395,870.946381 160.237307,872.257628 159.881918,873.167907"/>
    <poly id="150920358" type="building.yes" color="255,230,230" fill="1" layer="-1.00" shape="161.073236,844.953169 163.980634,850.367764 166.507362,849.019389 163.593027,843.604521 167.387528,831.560317 172.684322,828.683827 171.284356,826.112261 165.980622,828.988480 153.880079,825.161584 151.447800,820.211067 148.904178,821.458567 151.336459,826.409083 147.503375,838.552000 142.316353,841.288066 143.668198,843.846598 148.862156,841.110806 161.073236,844.953169"/>
    <poly id="150920358#1" type="historic.yes" color="128,255,128" fill="1" layer="-1.00" shape="161.073236,844.953169 163.980634,850.367764 166.507362,849.019389 163.593027,843.604521 167.387528,831.560317 172.684322,828.683827 171.284356,826.112261 165.980622,828.988480 153.880079,825.161584 151.447800,820.211067 148.904178,821.458567 151.336459,826.409083 147.503375,838.552000 142.316353,841.288066 143.668198,843.846598 148.862156,841.110806 161.073236,844.953169"/>
    <poly id="153342445" type="amenity.fountain" color="237,199,199" fill="1" layer="-1.00" shape="122.044592,863.464370 122.692661,864.302693 123.572788,864.894015 124.604772,865.157238 125.657226,865.076070 126.632580,864.657814 127.417642,863.953704 127.933475,863.027452 128.113269,861.987789 127.953097,860.934778 127.454658,860.002110 126.676902,859.281183 125.707406,858.842247 124.654560,858.756370 123.623310,859.005401 122.732476,859.571735 122.074436,860.403322 121.722499,861.402821 121.708784,862.460140 122.044592,863.464370"/>
    <poly id="153342445#1" type="natural.water" color="181,209,209" fill="1" layer="-4.00" shape="122.044592,863.464370 122.692661,864.302693 123.572788,864.894015 124.604772,865.157238 125.657226,865.076070 126.632580,864.657814 127.417642,863.953704 127.933475,863.027452 128.113269,861.987789 127.953097,860.934778 127.454658,860.002110 126.676902,859.281183 125.707406,858.842247 124.654560,858.756370 123.623310,859.005401 122.732476,859.571735 122.074436,860.403322 121.722499,861.402821 121.708784,862.460140 122.044592,863.464370"/>
    <poly id="153342466" type="historic.monument" color="128,255,128" fill="1" layer="-1.00" shape="117.402908,834.964959 118.303806,832.372386 115.691802,831.468097 114.797844,834.060942 117.402908,834.964959"/>
    <poly id="153342473" type="building.yes" color="255,230,230" fill="1" layer="-1.00" shape="194.312136,858.685552 195.220009,856.093265 192.615403,855.178090 191.707095,857.781496 194.312136,858.685552"/>
    <poly id="153342473#1" type="historic.monument" color="128,255,128" fill="1" layer="-1.00" shape="194.312136,858.685552 195.220009,856.093265 192.615403,855.178090 191.707095,857.781496 194.312136,858.685552"/>
    <poly id="179717015" type="building.office" color="255,230,230" fill="1" layer="-1.00" shape="253.620352,857.975248 248.715596,852.994355 229.588745,832.744976 226.142640,829.547386 224.195707,826.041220 223.346747,822.533641 223.489076,817.494915 225.007445,812.098231 228.461905,807.122794 231.544758,803.647170 234.030772,802.274957 264.356025,795.192698 309.409326,784.669483 309.933016,788.142027 313.754096,782.858123 320.433884,781.572807 325.661448,784.528681 326.626856,791.437145 323.811632,795.880875 316.918351,796.233560 318.000673,797.868451 312.121473,803.360993 303.133096,811.760185 289.333948,824.636078 253.620352,857.975248"/>
    <poly id="228853238" type="building.yes" color="255,230,230" fill="1" layer="-1.00" shape="92.244320,790.983773 89.834461,789.708832 86.407774,770.789010 88.466127,767.918941 128.999213,761.192028 135.941354,763.134886 137.335960,764.781995 139.710715,767.659070 142.467571,771.954202 143.461567,774.955231 143.293183,777.120013 142.692977,778.956049 141.195123,780.823653 139.149773,781.945964 131.390420,784.358341 119.803897,786.197334 92.244320,790.983773"/>
    <poly id="267214563" type="building.plinth" color="255,230,230" fill="1" layer="-1.00" shape="179.453027,789.742065 177.421588,789.094386 178.332128,786.257223 180.363132,786.916020 179.453027,789.742065"/>
    <poly id="267214563#1" type="historic.memorial" color="128,255,128" fill="1" layer="-1.00" shape="179.453027,789.742065 177.421588,789.094386 178.332128,786.257223 180.363132,786.916020 179.453027,789.742065"/>
    <poly id="267214563#2" type="tourism.artwork" color="207,245,201" fill="1" layer="-2.00" shape="179.453027,789.742065 177.421588,789.094386 178.332128,786.257223 180.363132,786.916020 179.453027,789.742065"/>
    <poly id="30734455" type="building.yes" color="255,230,230" fill="1" layer="-1.00" shape="246.275407,922.360884 248.000114,878.989589 236.198508,870.564190 233.248659,869.947221 230.955932,870.291436 229.077108,871.420252 228.197557,873.468014 226.275427,920.985039 246.275407,922.360884"/>
    <poly id="31142588" type="building.yes" color="255,230,230" fill="1" layer="-1.00" shape="204.834616,645.611827 199.953821,661.777972 184.568605,657.176179 182.632503,656.576787 175.776491,679.335458 188.378980,683.660916 191.070824,674.925160 195.034521,676.094139 192.385078,685.165619 203.650236,689.215890 216.665165,648.715551 211.874470,647.547482 204.834616,645.611827"/>
    <poly id="332801925" type="building.service" color="255,230,230" fill="1" layer="-1.00" shape="238.608100,750.140847 243.069936,735.973776 241.704069,735.541519 244.085700,727.628753 261.230744,732.533722 263.392245,731.816894 271.603694,710.826416 285.308459,717.867919 285.137032,718.340004 283.931418,721.610973 279.253905,734.366486 259.723915,747.540669 251.151249,756.501916 248.587528,758.082642 244.423246,754.945913 241.851450,752.840521 238.608100,750.140847"/>
    <poly id="369233798" type="building.yes" color="255,230,230" fill="1" layer="-1.00" shape="203.225867,766.901717 202.897540,770.307375 202.975898,772.381628 204.632677,777.791669 209.448959,781.666636 214.029098,783.238449 221.070605,783.180966 236.990283,779.296477 244.785119,777.397878 252.475015,775.517439 256.501720,774.372792 252.134654,759.947969 248.690701,761.293678 248.221248,759.092706 245.846322,760.112946 244.423246,754.945913 241.851450,752.840521 239.265655,754.275625 237.326092,755.357512 236.650660,754.685129 232.164406,758.506498 233.534162,765.208112 224.205331,767.770272 203.225867,766.901717"/>
    <poly id="369233802" type="building.yes" color="255,230,230" fill="1" layer="-1.00" shape="337.898618,722.818555 334.921029,720.429918 325.752999,722.786648 325.188517,720.882588 322.859223,721.448037 321.560783,721.775614 320.424108,722.053870 324.995992,739.927640 322.151474,740.695549 316.876207,719.854404 313.956233,720.597083 312.493431,715.027593 311.485941,713.963549 309.641943,714.381044 309.243172,713.741794 308.723392,713.175736 308.108171,712.739552 307.419198,712.411824 306.682478,712.238115 305.919264,712.208124 305.171186,712.323489 304.480309,712.574725 303.854447,712.939870 303.300538,713.419196 302.854146,713.991830 302.522648,714.646926 302.314729,715.340285 302.244265,716.072450 298.401882,716.945923 286.820477,727.314439 287.738852,730.646591 281.221494,732.394885 282.272033,736.077425 272.893373,739.728810 270.908032,741.621768 272.101943,745.900113 261.573120,748.582093 263.288680,756.032237 251.151249,756.501916 252.134654,759.947969 256.501720,774.372792 346.645323,750.276951 341.975240,731.898206 335.381103,733.654549 333.207973,725.295564 337.898618,722.818555"/>
    <poly id="369234480" type="building.yes" color="255,230,230" fill="1" layer="-1.00" shape="71.671629,823.838385 66.185213,822.164317 66.089301,822.483477 33.662985,826.633793 16.625452,855.473849 16.328732,855.952160 43.515395,872.519408 43.786153,871.817372 49.146108,874.410688 47.916283,878.126166 67.258833,883.862815 67.978961,880.917945 70.813400,881.819806 72.246893,876.987659 73.304447,877.307552 74.938408,871.971048 73.777655,871.624833 75.347385,866.508514 76.501201,866.854457 78.070935,861.738139 78.746209,859.582118 77.963557,859.339826 78.575908,857.370637 79.358560,857.612929 79.899741,855.863652 79.048144,855.607519 79.629252,853.726185 80.446158,853.980957 80.876677,852.572533 80.149093,852.343537 80.866479,849.999869 81.601438,850.218019 83.881630,842.757762 83.187862,842.552364 82.964791,843.278541 82.030808,842.996902 83.457336,838.342649 84.370943,838.612352 84.115755,839.448621 84.829901,839.665954 86.678270,833.647477 85.621144,833.316463 86.569854,830.213537 85.360961,829.854295 85.896561,827.893229 78.449321,825.897202 77.947814,825.042367 77.281492,824.314687 76.470298,823.737216 75.561489,823.345213 74.769275,823.169359 73.964886,823.126651 73.161762,823.228752 72.388092,823.465634 71.671629,823.838385"/>
    <poly id="382310651" type="building.arch" color="255,230,230" fill="1" layer="-1.00" shape="95.949168,727.757990 95.979059,727.881652 94.467689,728.323416 94.430860,728.199482 93.532722,728.420340 93.549609,728.521221 91.836638,728.788042 90.919040,728.796565 90.927679,728.930528 89.276324,729.043874 89.267248,728.921029 88.405593,728.920613 88.399919,729.065150 86.705670,729.032053 86.704405,728.887244 85.831927,728.808457 85.818879,728.963839 84.137678,728.775361 84.150726,728.619979 83.260488,728.462547 83.227935,728.583758 81.616160,728.219840 81.649150,728.087511 80.192199,727.673994 80.009141,727.911787 79.698272,727.688014 78.796424,728.888638 78.222380,728.465235 77.078042,730.001537 77.652085,730.424940 76.742427,731.647529 77.052860,731.882421 76.906676,732.065984 78.008813,732.844174 78.089366,733.270479 78.222502,733.242299 78.550343,734.981143 78.417207,735.009324 78.585251,735.862205 78.717951,735.845143 79.034970,737.505616 78.894895,737.533524 79.062503,738.397523 79.202577,738.369615 79.536483,740.130969 79.396408,740.158877 79.569644,741.056503 79.737472,741.029685 80.060119,742.723784 79.891855,742.761721 80.059898,743.614603 80.213849,743.587239 80.536932,745.270221 80.376043,745.297312 80.549279,746.194938 80.689353,746.167030 81.017629,747.894757 80.877554,747.922665 81.039095,748.764156 81.164857,748.746822 81.493131,750.474549 81.367370,750.491883 81.534104,751.378119 81.681116,751.350483 82.004198,753.033465 81.857186,753.061101 82.024792,753.925100 82.143615,753.907494 82.460194,755.579085 82.341371,755.596692 82.439683,756.101641 82.250605,756.138761 82.434225,757.125877 82.791567,757.050821 82.860861,757.409872 87.667101,756.763375 87.536369,755.845146 98.283326,754.329450 98.369897,754.956427 98.830440,754.907693 99.077195,756.587680 109.662393,755.121335 109.565920,754.215586 110.584668,753.754488 110.127933,752.467129 109.980921,752.494764 109.455721,751.004282 109.575853,750.953321 109.357547,749.964841 109.070896,750.009265 108.793290,748.584179 108.932928,748.567390 108.792252,747.548551 108.659552,747.565613 108.433614,745.886442 108.566314,745.869381 108.522727,745.032519 108.253490,744.810379 108.153178,743.648365 108.424297,743.291542 108.399252,742.867416 108.628651,742.865286 108.630442,742.642650 108.625731,742.408623 108.446210,742.379305 108.560638,740.880526 108.740596,740.898726 108.775377,740.543760 108.795364,740.388650 108.595028,740.358515 108.836180,738.463838 108.918220,738.144134 109.039617,738.237982 109.135444,738.275150 109.239081,738.290354 109.344028,738.272203 109.442473,738.242662 109.528351,738.179221 109.594287,738.092727 109.646347,738.005687 109.664152,737.906168 109.668516,737.794986 109.637753,737.693561 109.592677,737.602708 109.518975,737.533003 109.424458,737.462481 109.314318,737.435886 109.203742,737.420410 109.084046,737.460253 109.209943,736.908428 110.069309,733.957892 110.156015,734.050379 110.244030,734.109511 110.339857,734.146678 110.443931,734.150764 110.548441,734.143731 110.647323,734.103072 110.733201,734.039631 110.844259,733.865825 110.869002,733.766579 110.865991,733.666242 110.842167,733.565089 110.790152,733.473964 110.723825,733.393413 110.628871,733.334009 110.519168,733.296296 110.408156,733.291938 111.037672,732.125170 112.050721,730.216254 113.922642,727.316604 113.980285,727.441356 114.053551,727.522179 114.141566,727.581311 114.244331,727.618751 114.347969,727.633955 114.544860,727.574873 114.630301,727.522550 114.703176,727.436328 114.773477,727.238652 114.770467,727.138316 114.739704,727.036890 114.694628,726.946038 114.621362,726.865214 114.526408,726.805810 114.416705,726.768097 115.477661,725.763025 116.358176,724.929035 119.587915,721.782038 119.511549,721.957205 119.500246,722.068115 119.523634,722.180386 119.575212,722.282629 119.655416,722.363725 119.736493,722.422585 119.839258,722.460025 119.943332,722.464111 120.047843,722.457079 120.139787,722.416147 120.225665,722.352706 120.298103,722.277603 120.343661,722.179173 120.368405,722.079926 120.365395,721.979590 120.341570,721.878437 120.289555,721.787312 120.216290,721.706488 120.121336,721.647084 120.018571,721.609643 119.900620,721.605013 121.437219,720.874728 125.945519,718.791244 126.404802,718.597704 126.393062,718.719732 126.416450,718.832003 126.468028,718.934246 126.548232,719.015343 126.636247,719.074475 126.732074,719.111643 126.835712,719.126847 126.940659,719.108697 127.039541,719.068037 127.190920,718.929221 127.261222,718.731545 127.258212,718.631208 127.234387,718.530055 127.182373,718.438930 127.095230,718.357562 130.597989,717.637658 130.569753,717.825850 130.593141,717.938122 130.645156,718.029247 130.717985,718.121189 130.806000,718.180321 130.908765,718.217762 131.012839,718.221848 131.209294,718.173884 131.295173,718.110443 131.413170,717.936911 131.437913,717.837664 131.434903,717.737328 131.404140,717.635902 131.359064,717.545049 131.285799,717.464226 131.651828,717.344972 132.935895,717.206084 133.068159,717.200142 133.074179,717.400814 133.965336,717.357854 133.979695,717.169117 135.618006,717.211168 135.612768,717.344587 136.486121,717.401146 136.499170,717.245764 136.755887,717.255843 138.200753,717.446195 138.180765,717.601305 139.120008,717.749535 139.147807,717.572461 139.368960,717.603414 140.630811,717.853393 140.605631,717.963758 141.727842,718.230525 141.761707,718.075960 141.926916,718.115853 143.308808,718.671200 143.240252,718.824403 143.984740,719.154288 144.061107,718.979121 144.273139,719.065393 145.578709,719.617744 145.524466,719.760374 146.872929,720.459169 146.971718,720.774838 147.617899,720.599773 147.720134,721.004659 152.527433,719.801495 152.425198,719.396609 153.224022,719.227538 153.139109,718.912414 153.445500,718.011346 153.267287,717.948672 159.486724,699.541175 159.775561,699.441163 159.388948,698.668779 159.204623,698.761759 158.205144,696.784964 158.396408,696.692256 158.009795,695.919872 157.551382,696.091173 145.623140,692.115188 145.660199,691.348305 142.373796,690.450933 142.095550,691.520137 137.407259,690.222533 137.264356,689.437448 136.938438,688.711990 136.441634,688.091177 135.807764,687.598606 135.076275,687.291504 134.414123,687.165289 133.739358,687.183339 133.080170,687.335624 132.471251,687.623508 131.933852,688.036688 131.497037,688.542899 126.150953,687.007909 126.272052,686.578385 125.475061,686.346660 125.419509,686.522645 123.241007,685.902623 123.296995,685.715521 122.458811,685.471043 122.330775,685.900295 113.438983,683.346430 112.985237,683.929926 112.810078,683.789426 112.627453,684.016099 112.391595,683.828675 109.370246,687.685385 109.781700,688.002191 109.590829,688.261946 110.524179,689.445526 111.261074,690.677070 111.832321,691.879841 112.364120,693.025386 112.821298,694.301627 113.187013,695.429518 113.579563,696.758898 113.838148,697.960530 114.030796,699.248657 114.196127,700.524576 114.304642,701.831671 114.312965,703.212780 113.811660,703.237642 113.719280,703.289692 113.646405,703.375914 113.593908,703.474071 113.562227,703.573045 113.557862,703.684227 113.581251,703.796499 113.633266,703.887623 113.699157,703.979293 113.787173,704.038425 113.889938,704.075865 114.188722,704.076459 114.187278,704.644305 113.820044,707.803460 113.700392,707.665139 113.605002,707.616853 113.494862,707.590258 113.390351,707.597291 113.291905,707.626832 113.206463,707.679155 113.127523,707.742868 113.075463,707.829907 113.043781,707.928881 113.032915,708.028673 113.049802,708.129554 113.087503,708.231252 113.153831,708.311803 113.323361,708.418676 113.531073,708.437966 113.636894,708.397579 113.743587,708.334955 113.555245,708.884328 112.280313,712.330776 111.316086,714.943134 111.251068,714.829228 111.170427,714.759251 111.075036,714.710965 110.964897,714.684370 110.860386,714.691403 110.761940,714.720944 110.597558,714.836980 110.545498,714.924019 110.513817,715.022994 110.502951,715.122785 110.519837,715.223666 110.624303,715.394797 110.698006,715.464502 110.793396,715.512788 110.897034,715.527992 111.001545,715.520960 108.534539,718.887205 106.782887,721.201405 106.753433,721.066625 106.687541,720.974956 106.606901,720.904978 106.511947,720.845574 106.401371,720.830098 106.297296,720.826012 106.198851,720.855554 106.113409,720.907877 106.034033,720.982708 105.981973,721.069747 105.950292,721.168721 105.939425,721.268513 105.956312,721.369394 106.060778,721.540525 106.134481,721.610230 106.230307,721.647398 103.887291,723.448430 101.940284,724.897542 100.701991,725.817708 100.708974,725.639816 100.678210,725.538391 100.612755,725.435603 100.532115,725.365626 100.436724,725.317340 100.326585,725.290746 100.222074,725.297779 100.123629,725.327320 100.038187,725.379643 99.959247,725.443356 99.907188,725.530395 99.875507,725.629370 99.864641,725.729161 99.881528,725.830042 99.919229,725.931740 99.985557,726.012291 100.121268,726.095566 96.657354,727.596488 96.672148,727.396633 96.641820,727.284089 96.575929,727.192420 96.495288,727.122442 96.399898,727.074157 96.289758,727.047563 96.185248,727.054595 96.086803,727.084137 95.922421,727.200173 95.870362,727.287213 95.838681,727.386187 95.827815,727.485979 95.844702,727.586859 95.949168,727.757990"/>