<?xml version="1.0" encoding="UTF-8"?>

<!-- generated on 2022-07-15 21:06:34 by Eclipse SUMO polyconvert Version 1.13.0
<configuration xmlns:xsi="http://www.w3.org/2001/XMLSchema-instance" xsi:noNamespaceSchemaLocation="http://sumo.dlr.de/xsd/polyconvertConfiguration.xsd">

    <input>
        <net-file value="osm.net.xml"/>
        <osm-files value="osm_bbox.osm.xml.gz"/>
        <osm.keep-full-type value="true"/>
        <type-file value="/opt/homebrew/opt/sumo/share/sumo/data/typemap/osmPolyconvert.typ.xml"/>
    </input>

    <output>
        <output-file value="osm.poly.xml"/>
    </output>

    <processing>
        <poi-layer-offset value="5"/>
    </processing>

    <report>
        <verbose value="true"/>
    </report>

</configuration>
-->

<additional xmlns:xsi="http://www.w3.org/2001/XMLSchema-instance" xsi:noNamespaceSchemaLocation="http://sumo.dlr.de/xsd/additional_file.xsd">
    <location netOffset="-696957.95,-5711137.86" convBoundary="-419.11,-3306.09,6060.65,920.39" origBoundary="-0.167167,51.486273,-0.074456,51.524694" projParameter="+proj=utm +zone=30 +ellps=WGS84 +datum=WGS84 +units=m +no_defs"/>

    <poly id="101290048" type="building.yes" color="255,230,230" fill="1" layer="-1.00" shape="260.537802,461.511258 258.242771,468.548500 244.230811,463.739091 246.591275,456.626441 260.537802,461.511258"/>
    <poly id="101290049" type="building.commercial" color="255,230,230" fill="1" layer="-1.00" shape="258.242771,468.548500 255.004354,478.588951 226.288988,468.709475 228.138896,462.757294 236.061560,465.347925 237.330399,461.477693 244.230811,463.739091 258.242771,468.548500"/>
    <poly id="101290050" type="building.yes" color="255,230,230" fill="1" layer="-1.00" shape="251.756852,488.684725 248.834366,497.746436 227.752163,490.579978 228.263078,489.052059 220.458795,486.454904 222.812647,478.796370 251.756852,488.684725"/>
    <poly id="101290051" type="building.commercial" color="255,230,230" fill="1" layer="-1.00" shape="215.353632,484.831199 213.244516,490.840120 212.658627,492.509882 225.221271,496.895419 227.752163,490.579978 228.263078,489.052059 220.458795,486.454904 215.353632,484.831199"/>
    <poly id="116513330" type="building.apartments" color="255,230,230" fill="1" layer="-1.00" shape="227.813964,422.324305 231.290020,413.139343 232.096175,411.700845 226.650996,409.529433 227.615297,407.417840 230.187452,408.442024 234.180316,396.148190 235.901867,396.716182 237.687715,391.340538 235.595926,390.646804 238.427459,382.138304 240.793869,380.949748 241.132319,379.927340 244.177448,380.936508 244.837451,378.968982 247.800642,379.941562 248.735676,379.476828 250.836160,373.155800 230.095508,366.303291 222.133981,390.268342 213.287661,417.160948 227.813964,422.324305"/>
    <poly id="116513333" type="building.yes" color="255,230,230" fill="1" layer="-1.00" shape="255.177041,432.151205 268.686178,436.673850 273.654205,421.634179 257.809213,416.619859 255.704928,423.753598 255.037989,425.720854 257.108951,426.413787 255.177041,432.151205"/>
    <poly id="116513334" type="amenity.clinic" color="237,199,199" fill="1" layer="-2.00" shape="257.809213,416.619859 264.677946,395.930630 279.606551,400.931612 273.654205,421.634179 257.809213,416.619859"/>
    <poly id="116513334#1" type="building.residential" color="255,230,230" fill="1" layer="-1.00" shape="257.809213,416.619859 264.677946,395.930630 279.606551,400.931612 273.654205,421.634179 257.809213,416.619859"/>
    <poly id="116513335" type="building.office" color="255,230,230" fill="1" layer="-1.00" shape="279.606551,400.931612 284.767946,385.565413 269.804617,380.563069 269.270712,382.145766 262.749096,379.965877 263.165125,378.734919 256.349132,376.443379 251.840455,389.852928 258.156135,391.969123 260.417847,385.253503 267.474434,387.610077 264.677946,395.930630 279.606551,400.931612"/>
    <poly id="148008522" type="building.commercial" color="255,230,230" fill="1" layer="-1.00" shape="404.858239,176.575217 408.865502,177.855740 409.629138,175.190750 411.313823,170.278892 410.181833,169.911940 411.492893,165.854086 403.239026,163.194649 397.386139,161.318991 391.835429,159.533040 382.852321,156.689382 380.404039,164.266243 376.581888,176.087820 374.875168,181.388559 373.658621,185.160584 372.608500,188.404597 370.680321,194.398235 368.802018,200.538570 362.444961,219.844571 374.433280,223.651349 375.469014,223.992279 388.217318,228.084757 404.858239,176.575217"/>
    <poly id="148011236" type="amenity.cafe" color="237,199,199" fill="1" layer="-1.00" shape="359.864524,227.605596 382.828386,235.179780 380.944819,240.740880 358.137042,233.083694 359.864524,227.605596"/>
    <poly id="148011237" type="amenity.bank" color="237,199,199" fill="1" layer="-1.00" shape="354.322373,274.725368 352.301039,280.793334 351.972544,281.916339 342.799744,278.954010 345.130050,271.728871 354.322373,274.725368"/>
    <poly id="148011237#1" type="building.commercial" color="255,230,230" fill="1" layer="-1.00" shape="354.322373,274.725368 352.301039,280.793334 351.972544,281.916339 342.799744,278.954010 345.130050,271.728871 354.322373,274.725368"/>
    <poly id="148011239" type="amenity.restaurant" color="237,199,199" fill="1" layer="-1.00" shape="354.322373,274.725368 345.130050,271.728871 347.579107,264.129758 356.807874,267.261297 354.322373,274.725368"/>
    <poly id="148011240" type="shop.hairdresser" color="237,199,255" fill="1" layer="-1.00" shape="354.182248,244.209748 352.425301,249.731241 364.332910,253.468050 378.285075,257.863434 379.089406,254.865970 376.776041,254.152428 377.531004,251.709799 354.182248,244.209748"/>
    <poly id="148011241" type="building.commercial" color="255,230,230" fill="1" layer="-1.00" shape="355.348991,287.804494 370.191138,292.713283 373.260436,283.456903 372.180069,283.192181 374.998747,273.413839 361.490969,268.846447 356.528212,283.919664 355.348991,287.804494"/>
    <poly id="148011242" type="building.yes" color="255,230,230" fill="1" layer="-1.00" shape="362.444961,219.844571 359.864524,227.605596 358.137042,233.083694 355.996024,239.013383 354.182248,244.209748 352.425301,249.731241 364.332910,253.468050 378.285075,257.863434 379.089406,254.865970 376.776041,254.152428 377.531004,251.709799 379.110278,246.649077 380.944819,240.740880 382.828386,235.179780 385.710550,235.915447 387.014642,231.857318 374.374286,227.668826 375.469014,223.992279 374.433280,223.651349 362.444961,219.844571"/>
    <poly id="148011243" type="building.yes" color="255,230,230" fill="1" layer="-1.00" shape="347.579107,264.129758 345.130050,271.728871 342.799744,278.954010 341.859736,281.868257 342.479857,283.607176 350.402762,286.197980 355.348991,287.804494 356.528212,283.919664 355.117042,283.408245 355.525243,281.664774 352.301039,280.793334 354.322373,274.725368 356.807874,267.261297 347.579107,264.129758"/>
    <poly id="148011244" type="shop.travel_agency" color="237,199,255" fill="1" layer="-1.00" shape="355.996024,239.013383 379.110278,246.649077 380.944819,240.740880 358.137042,233.083694 355.996024,239.013383"/>
    <poly id="148011245" type="amenity.restaurant" color="237,199,199" fill="1" layer="-1.00" shape="356.035070,307.317601 352.431428,317.989637 351.458917,321.025103 355.658130,322.368732 360.206980,308.649036 356.035070,307.317601"/>
    <poly id="148011246" type="amenity.restaurant" color="237,199,199" fill="1" layer="-1.00" shape="355.996024,239.013383 354.182248,244.209748 377.531004,251.709799 379.110278,246.649077 355.996024,239.013383"/>
    <poly id="148011246#1" type="building.yes" color="255,230,230" fill="1" layer="-1.00" shape="355.996024,239.013383 354.182248,244.209748 377.531004,251.709799 379.110278,246.649077 355.996024,239.013383"/>
    <poly id="148011247" type="amenity.pub" color="237,199,199" fill="1" layer="-1.00" shape="370.735316,311.408014 366.698617,322.675629 367.952401,323.125256 370.317333,323.941017 370.716492,322.787356 373.759906,323.841075 374.363195,322.082923 377.363211,313.714659 370.735316,311.408014"/>
    <poly id="148011247#1" type="building.yes" color="255,230,230" fill="1" layer="-1.00" shape="370.735316,311.408014 366.698617,322.675629 367.952401,323.125256 370.317333,323.941017 370.716492,322.787356 373.759906,323.841075 374.363195,322.082923 377.363211,313.714659 370.735316,311.408014"/>
    <poly id="148011249" type="shop.optician" color="237,199,255" fill="1" layer="-1.00" shape="351.972544,281.916339 350.402762,286.197980 342.479857,283.607176 341.859736,281.868257 342.799744,278.954010 351.972544,281.916339"/>
    <poly id="148011250" type="shop.dry_cleaning" color="237,199,255" fill="1" layer="-1.00" shape="355.658130,322.368732 357.270875,322.876857 359.987833,323.750844 364.392761,309.981013 360.206980,308.649036 355.658130,322.368732"/>
    <poly id="148011252" type="building.yes" color="255,230,230" fill="1" layer="-1.00" shape="354.251072,306.747141 351.088674,316.612340 350.819112,317.470395 352.431428,317.989637 351.458917,321.025103 355.658130,322.368732 357.270875,322.876857 359.987833,323.750844 364.392761,309.981013 360.206980,308.649036 356.035070,307.317601 354.251072,306.747141"/>
    <poly id="148032559" type="building.yes" color="255,230,230" fill="1" layer="-1.00" shape="342.544308,303.029294 339.519701,312.031319 330.977729,309.104675 334.020537,300.170163 342.544308,303.029294"/>
    <poly id="148032559#1" type="shop.health_food" color="237,199,255" fill="1" layer="-1.00" shape="342.544308,303.029294 339.519701,312.031319 330.977729,309.104675 334.020537,300.170163 342.544308,303.029294"/>
    <poly id="148032563" type="shop.gift" color="237,199,255" fill="1" layer="-1.00" shape="342.365135,331.038233 341.119596,334.842541 324.532152,329.442832 325.785048,325.627672 342.365135,331.038233"/>
    <poly id="148032564" type="building.yes" color="255,230,230" fill="1" layer="-1.00" shape="343.843900,327.131645 342.365135,331.038233 325.785048,325.627672 326.962925,321.598028 343.843900,327.131645"/>
    <poly id="148032570" type="amenity.bank" color="237,199,199" fill="1" layer="-1.00" shape="315.708763,357.694671 309.407144,377.370333 322.889924,381.680523 324.913770,375.367675 331.309202,377.397982 332.882350,372.492903 333.523310,370.480104 327.395790,368.527023 329.459515,362.082106 315.708763,357.694671"/>
    <poly id="148032570#1" type="building.yes" color="255,230,230" fill="1" layer="-1.00" shape="315.708763,357.694671 309.407144,377.370333 322.889924,381.680523 324.913770,375.367675 331.309202,377.397982 332.882350,372.492903 333.523310,370.480104 327.395790,368.527023 329.459515,362.082106 315.708763,357.694671"/>
    <poly id="148032572" type="building.yes" color="255,230,230" fill="1" layer="-1.00" shape="346.586049,320.033874 343.843900,327.131645 326.962925,321.598028 329.261519,314.115543 346.586049,320.033874"/>
    <poly id="148032572#1" type="shop.health_food" color="237,199,255" fill="1" layer="-1.00" shape="346.586049,320.033874 343.843900,327.131645 326.962925,321.598028 329.261519,314.115543 346.586049,320.033874"/>
    <poly id="148032573" type="amenity.pharmacy" color="237,199,199" fill="1" layer="-1.00" shape="341.119596,334.842541 339.868887,338.958431 323.528532,333.278820 324.532152,329.442832 341.119596,334.842541"/>
    <poly id="148032575" type="building.yes" color="255,230,230" fill="1" layer="-1.00" shape="339.868887,338.958431 339.346235,340.608371 337.710234,345.700301 333.366672,344.317668 332.773813,346.165310 330.674215,345.493505 328.574184,344.832818 320.642266,342.297369 323.528532,333.278820 339.868887,338.958431"/>
    <poly id="148032577" type="building.yes" color="255,230,230" fill="1" layer="-1.00" shape="339.519701,312.031319 348.301842,315.034129 346.586049,320.033874 329.261519,314.115543 330.977729,309.104675 339.519701,312.031319"/>
    <poly id="148032577#1" type="shop.hairdresser" color="237,199,255" fill="1" layer="-1.00" shape="339.519701,312.031319 348.301842,315.034129 346.586049,320.033874 329.261519,314.115543 330.977729,309.104675 339.519701,312.031319"/>
    <poly id="148032581" type="building.commercial" color="255,230,230" fill="1" layer="-1.00" shape="315.708763,357.694671 320.642266,342.297369 330.674215,345.493505 330.310181,346.637399 332.114543,347.219778 331.197953,350.068126 335.836745,351.540184 337.710234,345.700301 339.346235,340.608371 344.643571,342.295342 346.012182,338.005877 350.410372,339.412916 349.998662,340.710846 351.411978,341.166674 343.284382,366.528137 336.950934,364.511361 337.851491,361.718066 336.019389,361.134606 336.241276,360.430588 330.566353,358.628726 329.459515,362.082106 315.708763,357.694671"/>
    <poly id="148032585" type="building.commercial" color="255,230,230" fill="1" layer="-1.00" shape="354.251072,306.747141 342.544308,303.029294 334.020537,300.170163 330.977729,309.104675 329.261519,314.115543 326.962925,321.598028 325.785048,325.627672 324.532152,329.442832 323.528532,333.278820 320.642266,342.297369 328.574184,344.832818 330.674215,345.493505 332.773813,346.165310 333.366672,344.317668 337.710234,345.700301 339.346235,340.608371 339.868887,338.958431 341.119596,334.842541 342.365135,331.038233 343.843900,327.131645 346.586049,320.033874 348.301842,315.034129 351.088674,316.612340 354.251072,306.747141"/>
    <poly id="148032587" type="building.yes" color="255,230,230" fill="1" layer="-1.00" shape="351.411978,341.166674 357.270875,322.876857 355.658130,322.368732 351.458917,321.025103 346.012182,338.005877 350.410372,339.412916 349.998662,340.710846 351.411978,341.166674"/>
    <poly id="148032588" type="building.yes" color="255,230,230" fill="1" layer="-1.00" shape="343.284382,366.528137 341.126596,373.247770 336.419760,371.739654 335.866772,373.455225 332.882350,372.492903 333.523310,370.480104 335.578808,364.068274 336.950934,364.511361 343.284382,366.528137"/>
    <poly id="148032594" type="amenity.restaurant" color="237,199,199" fill="1" layer="-1.00" shape="341.126596,373.247770 336.990894,386.170682 322.889924,381.680523 324.913770,375.367675 331.309202,377.397982 332.882350,372.492903 335.866772,373.455225 336.419760,371.739654 341.126596,373.247770"/>
    <poly id="148032594#1" type="building.yes" color="255,230,230" fill="1" layer="-1.00" shape="341.126596,373.247770 336.990894,386.170682 322.889924,381.680523 324.913770,375.367675 331.309202,377.397982 332.882350,372.492903 335.866772,373.455225 336.419760,371.739654 341.126596,373.247770"/>
    <poly id="148146004" type="amenity.pharmacy" color="237,199,199" fill="1" layer="-1.00" shape="302.124703,406.550641 300.447156,411.819127 315.728135,416.867326 317.488989,412.136568 302.124703,406.550641"/>
    <poly id="148146019" type="shop.travel_agency" color="237,199,255" fill="1" layer="-1.00" shape="276.411009,487.237966 289.300051,491.625218 290.975407,486.412320 278.119716,481.881605 276.411009,487.237966"/>
    <poly id="148146026" type="building.yes" color="255,230,230" fill="1" layer="-1.00" shape="299.695705,414.172820 297.313951,421.652080 316.388293,428.295335 323.771249,430.831710 326.145691,423.541472 318.400725,420.846261 316.063578,420.031601 299.695705,414.172820"/>
    <poly id="148146030" type="building.yes" color="255,230,230" fill="1" layer="-1.00" shape="293.067641,479.768069 307.605779,484.442187 314.002372,486.439121 311.854210,493.270487 302.965301,490.341516 278.119716,481.881605 278.784478,479.791782 280.073252,475.588280 293.067641,479.768069"/>
    <poly id="148146033" type="building.apartments" color="255,230,230" fill="1" layer="-1.00" shape="278.119716,481.881605 276.411009,487.237966 275.848953,489.008865 289.369177,493.420656 291.803831,494.227961 300.665425,497.144716 302.965301,490.341516 290.975407,486.412320 278.119716,481.881605"/>
    <poly id="148146035" type="building.yes" color="255,230,230" fill="1" layer="-1.00" shape="318.369619,405.567698 319.940290,406.085312 330.696974,409.576880 326.145691,423.541472 318.400725,420.846261 319.221508,418.138943 316.946353,417.337828 316.063578,420.031601 299.695705,414.172820 300.447156,411.819127 302.124703,406.550641 303.959999,400.798345 313.227122,404.009256 318.369619,405.567698"/>
    <poly id="148146049" type="building.commercial" color="255,230,230" fill="1" layer="-1.00" shape="275.848953,489.008865 274.242954,494.046301 273.586860,496.091922 287.234529,500.620014 289.369177,493.420656 275.848953,489.008865"/>
    <poly id="148146053" type="building.yes" color="255,230,230" fill="1" layer="-1.00" shape="315.953480,395.886430 313.227122,404.009256 303.959999,400.798345 305.042959,397.243816 306.515550,392.780224 315.953480,395.886430"/>
    <poly id="148146057" type="shop.stationery" color="237,199,255" fill="1" layer="-1.00" shape="294.893198,429.241176 306.646947,432.994164 304.728970,439.801078 292.748504,435.983604 294.893198,429.241176"/>
    <poly id="148146068" type="building.yes" color="255,230,230" fill="1" layer="-1.00" shape="287.496204,452.437499 282.607519,467.758621 295.910988,471.672055 297.672827,472.275041 302.069088,456.934785 287.496204,452.437499"/>
    <poly id="148146068#1" type="shop.convenience" color="237,199,255" fill="1" layer="-1.00" shape="287.496204,452.437499 282.607519,467.758621 295.910988,471.672055 297.672827,472.275041 302.069088,456.934785 287.496204,452.437499"/>
    <poly id="148146076" type="shop.convenience" color="237,199,255" fill="1" layer="-1.00" shape="278.784478,479.791782 306.289729,489.167972 307.605779,484.442187 293.067641,479.768069 280.073252,475.588280 278.784478,479.791782"/>
    <poly id="148146079" type="building.yes" color="255,230,230" fill="1" layer="-1.00" shape="290.384097,443.374460 287.496204,452.437499 282.607519,467.758621 280.073252,475.588280 293.067641,479.768069 314.002372,486.439121 318.556590,472.218529 325.987582,474.589753 328.557449,466.561064 331.432565,467.474597 330.265102,471.415563 339.334822,474.518640 344.671465,458.936606 336.145371,456.144175 332.494676,454.988912 331.981565,456.572413 324.641583,454.182450 316.853807,452.053464 315.819305,454.719067 306.830196,451.864142 307.779693,448.883450 290.384097,443.374460"/>
    <poly id="148146079#1" type="tourism.hotel" color="207,245,201" fill="1" layer="-2.00" shape="290.384097,443.374460 287.496204,452.437499 282.607519,467.758621 280.073252,475.588280 293.067641,479.768069 314.002372,486.439121 318.556590,472.218529 325.987582,474.589753 328.557449,466.561064 331.432565,467.474597 330.265102,471.415563 339.334822,474.518640 344.671465,458.936606 336.145371,456.144175 332.494676,454.988912 331.981565,456.572413 324.641583,454.182450 316.853807,452.053464 315.819305,454.719067 306.830196,451.864142 307.779693,448.883450 290.384097,443.374460"/>
    <poly id="148146096" type="building.yes" color="255,230,230" fill="1" layer="-1.00" shape="322.481561,398.077777 315.953480,395.886430 306.515550,392.780224 305.042959,397.243816 303.959999,400.798345 313.227122,404.009256 318.369619,405.567698 319.940290,406.085312 322.481561,398.077777"/>
    <poly id="148146098" type="building.yes" color="255,230,230" fill="1" layer="-1.00" shape="314.082777,435.421230 311.710461,442.121395 304.728970,439.801078 292.748504,435.983604 294.893198,429.241176 306.646947,432.994164 314.082777,435.421230"/>
    <poly id="148146100" type="building.yes" color="255,230,230" fill="1" layer="-1.00" shape="292.748504,435.983604 290.384097,443.374460 307.779693,448.883450 308.611275,445.898173 303.473573,444.217439 304.728970,439.801078 292.748504,435.983604"/>
    <poly id="232045359" type="building.apartments" color="255,230,230" fill="1" layer="-1.00" shape="163.034754,392.860086 160.336339,400.627742 166.744392,402.869897 170.160438,393.081273 167.754328,392.252870 169.074728,388.484842 165.754302,387.409348 163.858464,393.114791 163.034754,392.860086"/>
    <poly id="232045361" type="building.apartments" color="255,230,230" fill="1" layer="-1.00" shape="183.988576,408.884776 187.894345,397.756712 186.366141,397.218520 187.014431,395.373019 178.117896,392.276958 177.343940,394.496171 175.753740,393.944438 175.465130,394.757220 171.980600,404.699070 183.988576,408.884776"/>
    <poly id="232045365" type="building.residential" color="255,230,230" fill="1" layer="-1.00" shape="155.501561,398.836447 160.336339,400.627742 163.034754,392.860086 159.470672,391.619237 158.215594,391.203017 155.501561,398.836447"/>
    <poly id="232045368" type="building.yes" color="255,230,230" fill="1" layer="-1.00" shape="182.340944,351.708939 180.143121,358.928150 179.349264,361.480641 178.265956,365.046313 192.810566,369.564435 196.923728,356.139473 189.645995,353.930299 182.340944,351.708939"/>
    <poly id="232045376" type="building.residential" color="255,230,230" fill="1" layer="-1.00" shape="148.153383,379.309554 163.967837,384.578438 165.590693,379.820005 167.995922,380.492482 168.940209,378.001509 164.547653,376.628252 150.378467,372.102527 148.153383,379.309554"/>
    <poly id="232045378" type="building.residential" color="255,230,230" fill="1" layer="-1.00" shape="145.604943,386.793531 158.215594,391.203017 159.470672,391.619237 160.154041,389.585799 162.074160,390.228291 163.967837,384.578438 148.153383,379.309554 146.519288,384.178906 145.604943,386.793531"/>
    <poly id="232045379" type="building.residential" color="255,230,230" fill="1" layer="-1.00" shape="142.906528,394.383033 155.501561,398.836447 158.215594,391.203017 145.604943,386.793531 142.906528,394.383033"/>
    <poly id="232045380" type="building.apartments" color="255,230,230" fill="1" layer="-1.00" shape="202.451992,413.377051 190.045243,409.443046 189.578520,410.727714 183.988576,408.884776 187.894345,397.756712 189.114691,397.815268 193.117799,394.908679 199.180998,375.635635 195.756092,374.567196 201.566247,356.086046 218.820455,361.488995 205.725421,403.148637 202.451992,413.377051"/>
    <poly id="232045382" type="building.yes" color="255,230,230" fill="1" layer="-1.00" shape="157.474755,350.909806 170.410559,354.819736 170.084267,355.887160 180.143121,358.928150 182.340944,351.708939 159.346258,344.758011 158.015971,349.138086 157.474755,350.909806"/>
    <poly id="232045384" type="building.residential" color="255,230,230" fill="1" layer="-1.00" shape="155.224884,357.681600 167.879356,361.858971 174.067607,363.680595 178.265956,365.046313 179.349264,361.480641 169.041548,358.229552 170.084267,355.887160 170.410559,354.819736 157.474755,350.909806 155.224884,357.681600"/>
    <poly id="232045385" type="building.residential" color="255,230,230" fill="1" layer="-1.00" shape="152.775236,364.946711 166.914535,369.526956 171.800461,371.075275 171.928673,370.278532 174.067607,363.680595 167.879356,361.858971 155.224884,357.681600 152.775236,364.946711"/>
    <poly id="232045386" type="building.residential" color="255,230,230" fill="1" layer="-1.00" shape="150.378467,372.102527 164.547653,376.628252 165.534779,373.571055 170.529953,375.168158 171.800461,371.075275 166.914535,369.526956 152.775236,364.946711 150.378467,372.102527"/>
    <poly id="235395295" type="building.yes" color="255,230,230" fill="1" layer="-1.00" shape="355.240010,376.346575 357.824717,377.226555 360.447149,378.208220 360.175911,379.645234 355.948588,391.529006 350.555931,389.793772 355.240010,376.346575"/>
    <poly id="235395295#1" type="shop.dry_cleaning" color="237,199,255" fill="1" layer="-1.00" shape="355.240010,376.346575 357.824717,377.226555 360.447149,378.208220 360.175911,379.645234 355.948588,391.529006 350.555931,389.793772 355.240010,376.346575"/>
    <poly id="235395296" type="amenity.cafe" color="237,199,199" fill="1" layer="-1.00" shape="365.817876,394.975001 368.446385,387.226985 363.072788,385.358858 360.279546,393.055928 365.817876,394.975001"/>
    <poly id="235395296#1" type="building.yes" color="255,230,230" fill="1" layer="-1.00" shape="365.817876,394.975001 368.446385,387.226985 363.072788,385.358858 360.279546,393.055928 365.817876,394.975001"/>
    <poly id="235395302" type="building.residential" color="255,230,230" fill="1" layer="-1.00" shape="384.300194,343.258665 378.961197,359.074415 369.669755,355.951521 371.274997,350.758187 367.209350,349.553359 368.998395,344.278092 373.550038,345.668850 375.302213,340.091502 384.300194,343.258665"/>
    <poly id="235395303" type="building.residential" color="255,230,230" fill="1" layer="-1.00" shape="378.961197,359.074415 368.446385,387.226985 363.072788,385.358858 364.527687,381.172969 363.492418,380.820921 364.736687,377.228136 361.898798,376.249225 363.010016,373.040993 359.613745,371.951285 361.079869,367.298157 362.190142,367.686527 362.870137,365.742060 366.324947,366.934263 367.536719,363.462700 363.089532,361.708551 364.871633,356.433013 369.053463,357.686898 369.669755,355.951521 378.961197,359.074415"/>
    <poly id="235395306" type="building.commercial" color="255,230,230" fill="1" layer="-1.00" shape="357.864042,354.245235 363.885516,335.883802 371.143288,338.248343 368.998395,344.278092 367.209350,349.553359 364.871633,356.433013 357.864042,354.245235"/>
    <poly id="235395309" type="amenity.restaurant" color="237,199,199" fill="1" layer="-1.00" shape="374.363195,322.082923 378.451437,323.600416 381.674288,315.218551 377.363211,313.714659 374.363195,322.082923"/>
    <poly id="235395309#1" type="building.yes" color="255,230,230" fill="1" layer="-1.00" shape="374.363195,322.082923 378.451437,323.600416 381.674288,315.218551 377.363211,313.714659 374.363195,322.082923"/>
    <poly id="235395317" type="amenity.restaurant" color="237,199,199" fill="1" layer="-1.00" shape="350.555931,389.793772 344.825104,387.822690 349.381290,374.448461 351.078119,374.937585 355.240010,376.346575 350.555931,389.793772"/>
    <poly id="235395317#1" type="building.yes" color="255,230,230" fill="1" layer="-1.00" shape="350.555931,389.793772 344.825104,387.822690 349.381290,374.448461 351.078119,374.937585 355.240010,376.346575 350.555931,389.793772"/>
    <poly id="235395321" type="building.commercial" color="255,230,230" fill="1" layer="-1.00" shape="363.885516,335.883802 367.684169,324.306279 374.985305,326.627971 374.228223,329.482517 372.970931,333.052524 371.143288,338.248343 363.885516,335.883802"/>
    <poly id="235395323" type="building.commercial" color="255,230,230" fill="1" layer="-1.00" shape="364.871633,356.433013 363.089532,361.708551 361.079869,367.298157 359.613745,371.951285 357.824717,377.226555 355.240010,376.346575 351.078119,374.937585 357.864042,354.245235 364.871633,356.433013"/>
    <poly id="235395325" type="building.yes" color="255,230,230" fill="1" layer="-1.00" shape="360.175911,379.645234 363.492418,380.820921 364.527687,381.172969 363.072788,385.358858 360.279546,393.055928 355.948588,391.529006 360.175911,379.645234"/>
    <poly id="235395325#1" type="shop.beauty" color="237,199,255" fill="1" layer="-1.00" shape="360.175911,379.645234 363.492418,380.820921 364.527687,381.172969 363.072788,385.358858 360.279546,393.055928 355.948588,391.529006 360.175911,379.645234"/>
    <poly id="300860976" type="building.commercial" color="255,230,230" fill="1" layer="-1.00" shape="291.027442,370.008073 294.583258,359.490035 282.886114,355.705883 282.279031,358.098596 280.776407,357.617046 278.059190,365.684568 291.027442,370.008073"/>
    <poly id="300860985" type="amenity.pub" color="237,199,199" fill="1" layer="-1.00" shape="260.094867,359.607974 249.419997,356.331312 249.585409,354.756560 252.632330,345.354496 263.552998,348.384611 262.237378,352.921125 260.094867,359.607974"/>
    <poly id="300860985#1" type="building.yes" color="255,230,230" fill="1" layer="-1.00" shape="260.094867,359.607974 249.419997,356.331312 249.585409,354.756560 252.632330,345.354496 263.552998,348.384611 262.237378,352.921125 260.094867,359.607974"/>
    <poly id="300860989" type="building.apartments" color="255,230,230" fill="1" layer="-1.00" shape="287.285179,285.258160 285.620423,285.015278 259.803113,276.506614 257.236728,284.268227 266.633704,287.361599 267.035434,286.141221 268.071160,286.482130 267.040180,289.593283 272.286874,291.333881 271.649822,293.246621 273.158971,293.739556 270.868624,300.654492 276.026428,302.358234 279.811475,290.947156 283.405513,292.133574 284.971901,292.762359 287.285179,285.258160"/>
    <poly id="300860991" type="building.apartments" color="255,230,230" fill="1" layer="-1.00" shape="235.829806,350.313482 242.143325,330.860910 251.252469,302.753696 257.236728,284.268227 266.633704,287.361599 262.412665,299.624275 275.163028,303.839042 271.913206,313.634072 262.324657,310.466429 259.167077,311.991681 260.691278,315.135348 270.245547,318.112360 267.492870,326.913424 257.918240,323.924491 254.604072,324.653067 256.651090,327.750245 266.171952,330.692546 262.637528,342.091104 247.309493,337.353037 245.863415,342.029240 252.981610,344.232294 252.632330,345.354496 249.585409,354.756560 235.829806,350.313482"/>
    <poly id="300861008" type="building.yes" color="255,230,230" fill="1" layer="-1.00" shape="300.916168,298.270544 298.690413,305.488628 311.150235,309.313599 312.748058,304.131096 314.663543,297.925381 315.863972,294.030233 287.285179,285.258160 284.971901,292.762359 287.422689,293.514607 284.982007,301.436987 292.715443,303.897849 295.071212,296.373034 300.916168,298.270544"/>
    <poly id="300861015" type="building.yes" color="255,230,230" fill="1" layer="-1.00" shape="260.094867,359.607974 262.050533,360.229615 268.221018,362.329042 272.007355,351.240927 269.517569,350.420358 268.305402,349.972373 266.847574,354.414278 264.419352,353.618375 262.237378,352.921125 260.094867,359.607974"/>
    <poly id="300861021" type="building.commercial" color="255,230,230" fill="1" layer="-1.00" shape="294.583258,359.490035 298.269048,348.130785 301.894626,337.069844 284.621303,331.443168 276.609568,328.815606 269.517569,350.420358 272.007355,351.240927 276.712064,352.804574 277.562657,353.082613 279.519724,347.056666 285.111440,348.855235 282.886114,355.705883 294.583258,359.490035"/>