<?xml version="1.0" encoding="UTF-8"?>

<net version="1.9" junctionCornerDetail="5" lefthand="true" limitTurnSpeed="5.50" xmlns:xsi="http://www.w3.org/2001/XMLSchema-instance" xsi:noNamespaceSchemaLocation="http://sumo.dlr.de/xsd/net_file.xsd">

    <location netOffset="-696957.95,-5711137.86" convBoundary="0.00,-0.00,512.18,599.49" origBoundary="-0.161091,51.516912,-0.153580,51.522253" projParameter="+proj=utm +zone=30 +ellps=WGS84 +datum=WGS84 +units=m +no_defs"/>

    <type id="highway.bridleway" priority="1" numLanes="1" speed="2.78" allow="pedestrian" oneway="1" width="2.00"/>
    <type id="highway.bus_guideway" priority="1" numLanes="1" speed="27.78" allow="bus" oneway="1"/>
    <type id="highway.cycleway" priority="1" numLanes="1" speed="8.33" allow="bicycle" oneway="0" width="1.00"/>
    <type id="highway.footway" priority="1" numLanes="1" speed="2.78" allow="pedestrian" oneway="1" width="2.00"/>
    <type id="highway.ford" priority="1" numLanes="1" speed="2.78" allow="army" oneway="0"/>
    <type id="highway.living_street" priority="2" numLanes="1" speed="2.78" disallow="tram rail_urban rail rail_electric rail_fast ship" oneway="0"/>
    <type id="highway.motorway" priority="14" numLanes="2" speed="39.44" allow="private emergency authority army vip passenger hov taxi bus coach delivery truck trailer motorcycle evehicle custom1 custom2" oneway="1"/>
    <type id="highway.motorway_link" priority="9" numLanes="1" speed="22.22" allow="private emergency authority army vip passenger hov taxi bus coach delivery truck trailer motorcycle evehicle custom1 custom2" oneway="1"/>
    <type id="highway.path" priority="1" numLanes="1" speed="2.78" allow="pedestrian bicycle" oneway="0" width="2.00"/>
    <type id="highway.pedestrian" priority="1" numLanes="1" speed="2.78" allow="pedestrian" oneway="1" width="2.00"/>
    <type id="highway.primary" priority="12" numLanes="2" speed="27.78" disallow="tram rail_urban rail rail_electric rail_fast ship" oneway="0"/>
    <type id="highway.primary_link" priority="7" numLanes="1" speed="22.22" disallow="tram rail_urban rail rail_electric rail_fast ship" oneway="0"/>
    <type id="highway.raceway" priority="15" numLanes="2" speed="83.33" allow="vip" oneway="0"/>
    <type id="highway.residential" priority="3" numLanes="1" speed="13.89" disallow="tram rail_urban rail rail_electric rail_fast ship" oneway="0"/>
    <type id="highway.secondary" priority="11" numLanes="1" speed="27.78" disallow="tram rail_urban rail rail_electric rail_fast ship" oneway="0"/>
    <type id="highway.secondary_link" priority="6" numLanes="1" speed="22.22" disallow="tram rail_urban rail rail_electric rail_fast ship" oneway="0"/>
    <type id="highway.service" priority="1" numLanes="1" speed="5.56" allow="pedestrian delivery bicycle" oneway="0"/>
    <type id="highway.stairs" priority="1" numLanes="1" speed="1.39" allow="pedestrian" oneway="1" width="2.00"/>
    <type id="highway.step" priority="1" numLanes="1" speed="1.39" allow="pedestrian" oneway="1" width="2.00"/>
    <type id="highway.steps" priority="1" numLanes="1" speed="1.39" allow="pedestrian" oneway="1" width="2.00"/>
    <type id="highway.tertiary" priority="10" numLanes="1" speed="22.22" disallow="tram rail_urban rail rail_electric rail_fast ship" oneway="0"/>
    <type id="highway.tertiary_link" priority="5" numLanes="1" speed="22.22" disallow="tram rail_urban rail rail_electric rail_fast ship" oneway="0"/>
    <type id="highway.track" priority="1" numLanes="1" speed="5.56" allow="pedestrian motorcycle moped bicycle" oneway="0"/>
    <type id="highway.trunk" priority="13" numLanes="2" speed="27.78" disallow="pedestrian bicycle tram rail_urban rail rail_electric rail_fast ship" oneway="0"/>
    <type id="highway.trunk_link" priority="8" numLanes="1" speed="22.22" disallow="pedestrian bicycle tram rail_urban rail rail_electric rail_fast ship" oneway="0"/>
    <type id="highway.unclassified" priority="4" numLanes="1" speed="13.89" disallow="tram rail_urban rail rail_electric rail_fast ship" oneway="0"/>
    <type id="highway.unsurfaced" priority="1" numLanes="1" speed="8.33" disallow="tram rail_urban rail rail_electric rail_fast ship" oneway="0"/>
    <type id="railway.highspeed" priority="21" numLanes="1" speed="69.44" allow="rail_fast" oneway="1"/>
    <type id="railway.light_rail" priority="19" numLanes="1" speed="27.78" allow="rail_urban" oneway="1"/>
    <type id="railway.preserved" priority="16" numLanes="1" speed="27.78" allow="rail" oneway="1"/>
    <type id="railway.rail" priority="20" numLanes="1" speed="44.44" allow="rail" oneway="1"/>
    <type id="railway.subway" priority="18" numLanes="1" speed="27.78" allow="rail_urban" oneway="1"/>
    <type id="railway.tram" priority="17" numLanes="1" speed="13.89" allow="tram" oneway="1"/>

    <edge id=":102025_0" function="internal">
        <lane id=":102025_0_0" index="0" disallow="tram rail_urban rail rail_electric rail_fast ship" speed="6.46" length="9.04" shape="323.85,279.81 322.84,282.05 321.35,283.41 319.36,283.89 316.88,283.50"/>
    </edge>
    <edge id=":102025_1" function="internal">
        <lane id=":102025_1_0" index="0" disallow="tram rail_urban rail rail_electric rail_fast ship" speed="8.94" length="15.08" shape="323.85,279.81 323.03,284.51 323.11,288.19 323.33,291.42 322.91,294.78"/>
    </edge>
    <edge id=":102025_2" function="internal">
        <lane id=":102025_2_0" index="0" disallow="tram rail_urban rail rail_electric rail_fast ship" speed="8.68" length="5.07" shape="326.91,280.72 326.57,284.70 326.99,285.69"/>
    </edge>
    <edge id=":102025_3" function="internal">
        <lane id=":102025_3_0" index="0" disallow="tram rail_urban rail rail_electric rail_fast ship" speed="3.65" length="1.44" shape="326.91,280.72 327.34,282.10"/>
    </edge>
    <edge id=":102025_16" function="internal">
        <lane id=":102025_16_0" index="0" disallow="tram rail_urban rail rail_electric rail_fast ship" speed="8.68" length="11.83" shape="326.99,285.69 327.96,288.00 331.09,290.61 335.97,292.55"/>
    </edge>
    <edge id=":102025_17" function="internal">
        <lane id=":102025_17_0" index="0" disallow="tram rail_urban rail rail_electric rail_fast ship" speed="3.65" length="3.23" shape="327.34,282.10 327.99,282.71 328.87,282.56 329.98,281.64"/>
    </edge>
    <edge id=":102025_4" function="internal">
        <lane id=":102025_4_0" index="0" disallow="tram rail_urban rail rail_electric rail_fast ship" speed="7.32" length="11.72" shape="336.82,289.47 333.25,288.10 330.92,286.34 329.83,284.19 329.98,281.64"/>
    </edge>
    <edge id=":102025_5" function="internal">
        <lane id=":102025_5_0" index="0" disallow="tram rail_urban rail rail_electric rail_fast ship" speed="8.94" length="20.82" shape="336.82,289.47 316.88,283.50"/>
    </edge>
    <edge id=":102025_6" function="internal">
        <lane id=":102025_6_0" index="0" disallow="tram rail_urban rail rail_electric rail_fast ship" speed="8.66" length="5.29" shape="336.82,289.47 331.61,288.59"/>
    </edge>
    <edge id=":102025_7" function="internal">
        <lane id=":102025_7_0" index="0" disallow="tram rail_urban rail rail_electric rail_fast ship" speed="3.65" length="1.44" shape="336.82,289.47 335.45,289.92"/>
    </edge>
    <edge id=":102025_18" function="internal">
        <lane id=":102025_18_0" index="0" disallow="tram rail_urban rail rail_electric rail_fast ship" speed="8.66" length="11.60" shape="331.61,288.59 327.55,289.18 324.65,291.25 322.91,294.78"/>
    </edge>
    <edge id=":102025_19" function="internal">
        <lane id=":102025_19_0" index="0" disallow="tram rail_urban rail rail_electric rail_fast ship" speed="3.65" length="3.23" shape="335.45,289.92 334.85,290.58 335.02,291.46 335.97,292.55"/>
    </edge>
    <edge id=":102025_8" function="internal">
        <lane id=":102025_8_0" index="0" disallow="tram rail_urban rail rail_electric rail_fast ship" speed="6.49" length="9.03" shape="329.09,296.46 330.07,294.19 331.54,292.78 333.51,292.23 335.97,292.55"/>
    </edge>
    <edge id=":102025_9" function="internal">
        <lane id=":102025_9_0" index="0" disallow="tram rail_urban rail rail_electric rail_fast ship" speed="8.94" length="14.92" shape="329.09,296.46 329.86,291.80 329.76,288.17 329.54,284.98 329.98,281.64"/>
    </edge>
    <edge id=":102025_10" function="internal">
        <lane id=":102025_10_0" index="0" disallow="tram rail_urban rail rail_electric rail_fast ship" speed="8.83" length="5.12" shape="326.00,295.62 326.31,291.63 325.87,290.60"/>
    </edge>
    <edge id=":102025_11" function="internal">
        <lane id=":102025_11_0" index="0" disallow="tram rail_urban rail rail_electric rail_fast ship" speed="3.65" length="1.44" shape="326.00,295.62 325.54,294.25"/>
    </edge>
    <edge id=":102025_20" function="internal">
        <lane id=":102025_20_0" index="0" disallow="tram rail_urban rail rail_electric rail_fast ship" speed="8.83" length="11.96" shape="325.87,290.60 324.89,288.29 321.75,285.57 316.88,283.50"/>
    </edge>
    <edge id=":102025_21" function="internal">
        <lane id=":102025_21_0" index="0" disallow="tram rail_urban rail rail_electric rail_fast ship" speed="3.65" length="3.23" shape="325.54,294.25 324.88,293.66 324.00,293.83 322.91,294.78"/>
    </edge>
    <edge id=":102025_12" function="internal">
        <lane id=":102025_12_0" index="0" disallow="tram rail_urban rail rail_electric rail_fast ship" speed="7.52" length="12.10" shape="315.90,286.54 319.54,288.04 321.92,289.91 323.05,292.16 322.91,294.78"/>
    </edge>
    <edge id=":102025_13" function="internal">
        <lane id=":102025_13_0" index="0" disallow="tram rail_urban rail rail_electric rail_fast ship" speed="8.94" length="20.95" shape="315.90,286.54 335.97,292.55"/>
    </edge>
    <edge id=":102025_14" function="internal">
        <lane id=":102025_14_0" index="0" disallow="tram rail_urban rail rail_electric rail_fast ship" speed="8.63" length="5.73" shape="315.90,286.54 321.16,287.58 321.53,287.54"/>
    </edge>
    <edge id=":102025_15" function="internal">
        <lane id=":102025_15_0" index="0" disallow="tram rail_urban rail rail_electric rail_fast ship" speed="3.65" length="1.44" shape="315.90,286.54 317.28,286.15"/>
    </edge>
    <edge id=":102025_22" function="internal">
        <lane id=":102025_22_0" index="0" disallow="tram rail_urban rail rail_electric rail_fast ship" speed="8.63" length="11.22" shape="321.53,287.54 325.26,287.11 328.20,285.13 329.98,281.64"/>
    </edge>
    <edge id=":102025_23" function="internal">
        <lane id=":102025_23_0" index="0" disallow="tram rail_urban rail rail_electric rail_fast ship" speed="3.65" length="3.23" shape="317.28,286.15 317.91,285.51 317.77,284.63 316.88,283.50"/>
    </edge>
    <edge id=":102031_0" function="internal">
        <lane id=":102031_0_0" index="0" disallow="tram rail_urban rail rail_electric rail_fast ship" speed="6.46" length="9.03" shape="150.54,324.89 149.46,327.13 147.93,328.48 145.95,328.92 143.52,328.46"/>
    </edge>
    <edge id=":102031_1" function="internal">
        <lane id=":102031_1_0" index="0" disallow="tram rail_urban rail rail_electric rail_fast ship" speed="8.94" length="14.64" shape="150.54,324.89 146.23,338.90"/>
        <lane id=":102031_1_1" index="1" disallow="tram rail_urban rail rail_electric rail_fast ship" speed="8.94" length="14.64" shape="153.59,325.84 149.29,339.83"/>
    </edge>
    <edge id=":102031_3" function="internal">
        <lane id=":102031_3_0" index="0" disallow="tram rail_urban rail rail_electric rail_fast ship" speed="8.06" length="4.20" shape="153.59,325.84 152.94,329.75 152.99,329.98"/>
    </edge>
    <edge id=":102031_4" function="internal">
        <lane id=":102031_4_0" index="0" disallow="tram rail_urban rail rail_electric rail_fast ship" speed="3.65" length="1.44" shape="153.59,325.84 154.00,327.22"/>
    </edge>
    <edge id=":102031_17" function="internal">
        <lane id=":102031_17_0" index="0" disallow="tram rail_urban rail rail_electric rail_fast ship" speed="8.06" length="10.20" shape="152.99,329.98 153.68,332.93 155.82,335.37 159.35,337.09"/>
    </edge>
    <edge id=":102031_18" function="internal">
        <lane id=":102031_18_0" index="0" disallow="tram rail_urban rail rail_electric rail_fast ship" speed="3.65" length="3.23" shape="154.00,327.22 154.65,327.84 155.53,327.70 156.65,326.79"/>
    </edge>
    <edge id=":102031_5" function="internal">
        <lane id=":102031_5_0" index="0" disallow="tram rail_urban rail rail_electric rail_fast ship" speed="6.59" length="9.26" shape="160.32,334.04 158.06,332.94 156.70,331.36 156.23,329.31 156.65,326.79"/>
    </edge>
    <edge id=":102031_6" function="internal">
        <lane id=":102031_6_0" index="0" disallow="tram rail_urban rail rail_electric rail_fast ship" speed="8.94" length="17.70" shape="160.32,334.04 143.52,328.46"/>
    </edge>
    <edge id=":102031_7" function="internal">
        <lane id=":102031_7_0" index="0" disallow="tram rail_urban rail rail_electric rail_fast ship" speed="7.98" length="3.91" shape="160.32,334.04 156.46,333.39"/>
    </edge>
    <edge id=":102031_8" function="internal">
        <lane id=":102031_8_0" index="0" disallow="tram rail_urban rail rail_electric rail_fast ship" speed="3.65" length="1.44" shape="160.32,334.04 158.93,334.44"/>
    </edge>
    <edge id=":102031_19" function="internal">
        <lane id=":102031_19_0" index="0" disallow="tram rail_urban rail rail_electric rail_fast ship" speed="7.98" length="10.33" shape="156.46,333.39 153.34,334.14 150.95,336.29 149.29,339.83"/>
    </edge>
    <edge id=":102031_20" function="internal">
        <lane id=":102031_20_0" index="0" disallow="tram rail_urban rail rail_electric rail_fast ship" speed="3.65" length="3.23" shape="158.93,334.44 158.31,335.08 158.45,335.96 159.35,337.09"/>
    </edge>
    <edge id=":102031_9" function="internal">
        <lane id=":102031_9_0" index="0" disallow="tram rail_urban rail rail_electric rail_fast ship" speed="6.48" length="9.03" shape="152.36,340.76 153.41,338.51 154.92,337.15 156.90,336.68 159.35,337.09"/>
    </edge>
    <edge id=":102031_10" function="internal">
        <lane id=":102031_10_0" index="0" disallow="tram rail_urban rail rail_electric rail_fast ship" speed="8.94" length="14.62" shape="152.36,340.76 156.65,326.79"/>
    </edge>
    <edge id=":102031_11" function="internal">
        <lane id=":102031_11_0" index="0" disallow="tram rail_urban rail rail_electric rail_fast ship" speed="8.82" length="3.70" shape="152.36,340.76 152.74,337.08"/>
    </edge>
    <edge id=":102031_12" function="internal">
        <lane id=":102031_12_0" index="0" disallow="tram rail_urban rail rail_electric rail_fast ship" speed="3.65" length="1.44" shape="152.36,340.76 151.94,339.38"/>
    </edge>
    <edge id=":102031_21" function="internal">
        <lane id=":102031_21_0" index="0" disallow="tram rail_urban rail rail_electric rail_fast ship" speed="8.82" length="13.33" shape="152.74,337.08 152.76,336.84 151.43,333.48 148.34,330.69 143.52,328.46"/>
    </edge>
    <edge id=":102031_22" function="internal">
        <lane id=":102031_22_0" index="0" disallow="tram rail_urban rail rail_electric rail_fast ship" speed="3.65" length="3.23" shape="151.94,339.38 151.29,338.76 150.41,338.91 149.29,339.83"/>
    </edge>
    <edge id=":102031_13" function="internal">
        <lane id=":102031_13_0" index="0" disallow="tram rail_urban rail rail_electric rail_fast ship" speed="6.70" length="9.40" shape="142.49,331.49 144.76,332.65 146.14,334.27 146.63,336.35 146.23,338.90"/>
    </edge>
    <edge id=":102031_14" function="internal">
        <lane id=":102031_14_0" index="0" disallow="tram rail_urban rail rail_electric rail_fast ship" speed="8.94" length="17.77" shape="142.49,331.49 159.35,337.09"/>
    </edge>
    <edge id=":102031_15" function="internal">
        <lane id=":102031_15_0" index="0" disallow="tram rail_urban rail rail_electric rail_fast ship" speed="8.64" length="5.65" shape="142.49,331.49 147.66,332.66 148.00,332.63"/>
    </edge>
    <edge id=":102031_16" function="internal">
        <lane id=":102031_16_0" index="0" disallow="tram rail_urban rail rail_electric rail_fast ship" speed="3.65" length="1.44" shape="142.49,331.49 143.88,331.12"/>
    </edge>
    <edge id=":102031_23" function="internal">
        <lane id=":102031_23_0" index="0" disallow="tram rail_urban rail rail_electric rail_fast ship" speed="8.64" length="11.35" shape="148.00,332.63 151.75,332.27 154.75,330.31 156.65,326.79"/>
    </edge>
    <edge id=":102031_24" function="internal">
        <lane id=":102031_24_0" index="0" disallow="tram rail_urban rail rail_electric rail_fast ship" speed="3.65" length="3.23" shape="143.88,331.12 144.52,330.49 144.40,329.61 143.52,328.46"/>
    </edge>
    <edge id=":102036_0" function="internal">
        <lane id=":102036_0_0" index="0" disallow="tram rail_urban rail rail_electric rail_fast ship" speed="3.65" length="4.67" shape="31.09,364.59 29.70,364.98 29.07,365.61 29.20,366.50 30.08,367.63"/>
    </edge>
    <edge id=":108209_0" function="internal">
        <lane id=":108209_0_0" index="0" disallow="tram rail_urban rail rail_electric rail_fast ship" speed="6.48" length="9.05" shape="369.83,397.69 368.77,399.93 367.25,401.28 365.26,401.75 362.81,401.32"/>
    </edge>
    <edge id=":108209_1" function="internal">
        <lane id=":108209_1_0" index="0" disallow="tram rail_urban rail rail_electric rail_fast ship" speed="8.94" length="14.46" shape="369.83,397.69 365.33,411.42"/>
    </edge>
    <edge id=":108209_2" function="internal">
        <lane id=":108209_2_0" index="0" disallow="tram rail_urban rail rail_electric rail_fast ship" speed="8.02" length="14.23" shape="369.83,397.69 369.22,401.55 369.98,404.68 372.12,407.07 375.63,408.74"/>
    </edge>
    <edge id=":108209_3" function="internal">
        <lane id=":108209_3_0" index="0" disallow="tram rail_urban rail rail_electric rail_fast ship" speed="3.65" length="4.67" shape="369.83,397.69 370.25,399.07 370.89,399.69 371.77,399.54 372.89,398.63"/>
    </edge>
    <edge id=":108209_4" function="internal">
        <lane id=":108209_4_0" index="0" disallow="tram rail_urban rail rail_electric rail_fast ship" speed="6.53" length="9.08" shape="376.58,405.68 374.34,404.62 372.98,403.09 372.50,401.09 372.89,398.63"/>
    </edge>
    <edge id=":108209_5" function="internal">
        <lane id=":108209_5_0" index="0" disallow="tram rail_urban rail rail_electric rail_fast ship" speed="8.94" length="14.44" shape="376.58,405.68 362.81,401.32"/>
    </edge>
    <edge id=":108209_6" function="internal">
        <lane id=":108209_6_0" index="0" disallow="tram rail_urban rail rail_electric rail_fast ship" speed="8.13" length="4.01" shape="376.58,405.68 372.74,405.07 372.62,405.10"/>
    </edge>
    <edge id=":108209_7" function="internal">
        <lane id=":108209_7_0" index="0" disallow="tram rail_urban rail rail_electric rail_fast ship" speed="3.65" length="1.44" shape="376.58,405.68 375.19,406.09"/>
    </edge>
    <edge id=":108209_16" function="internal">
        <lane id=":108209_16_0" index="0" disallow="tram rail_urban rail rail_electric rail_fast ship" speed="8.13" length="10.28" shape="372.62,405.10 369.59,405.83 367.12,407.94 365.33,411.42"/>
    </edge>
    <edge id=":108209_17" function="internal">
        <lane id=":108209_17_0" index="0" disallow="tram rail_urban rail rail_electric rail_fast ship" speed="3.65" length="3.23" shape="375.19,406.09 374.58,406.74 374.72,407.62 375.63,408.74"/>
    </edge>
    <edge id=":108209_8" function="internal">
        <lane id=":108209_8_0" index="0" disallow="tram rail_urban rail rail_electric rail_fast ship" speed="6.66" length="9.26" shape="368.36,412.48 369.52,410.22 371.12,408.84 373.15,408.35 375.63,408.74"/>
    </edge>
    <edge id=":108209_9" function="internal">
        <lane id=":108209_9_0" index="0" disallow="tram rail_urban rail rail_electric rail_fast ship" speed="8.94" length="14.57" shape="368.36,412.48 372.89,398.63"/>
    </edge>
    <edge id=":108209_10" function="internal">
        <lane id=":108209_10_0" index="0" disallow="tram rail_urban rail rail_electric rail_fast ship" speed="7.96" length="14.27" shape="368.36,412.48 369.11,408.63 368.43,405.48 366.33,403.05 362.81,401.32"/>
    </edge>
    <edge id=":108209_11" function="internal">
        <lane id=":108209_11_0" index="0" disallow="tram rail_urban rail rail_electric rail_fast ship" speed="3.65" length="4.67" shape="368.36,412.48 368.00,411.08 367.37,410.44 366.48,410.55 365.33,411.42"/>
    </edge>
    <edge id=":108209_12" function="internal">
        <lane id=":108209_12_0" index="0" disallow="tram rail_urban rail rail_electric rail_fast ship" speed="6.46" length="9.03" shape="361.82,404.37 364.05,405.46 365.38,407.00 365.81,408.99 365.33,411.42"/>
    </edge>
    <edge id=":108209_13" function="internal">
        <lane id=":108209_13_0" index="0" disallow="tram rail_urban rail rail_electric rail_fast ship" speed="8.94" length="14.48" shape="361.82,404.37 375.63,408.74"/>
    </edge>
    <edge id=":108209_14" function="internal">
        <lane id=":108209_14_0" index="0" disallow="tram rail_urban rail rail_electric rail_fast ship" speed="7.98" length="4.14" shape="361.82,404.37 365.69,405.04 365.90,404.99"/>
    </edge>
    <edge id=":108209_15" function="internal">
        <lane id=":108209_15_0" index="0" disallow="tram rail_urban rail rail_electric rail_fast ship" speed="3.65" length="1.44" shape="361.82,404.37 363.21,403.97"/>
    </edge>
    <edge id=":108209_18" function="internal">
        <lane id=":108209_18_0" index="0" disallow="tram rail_urban rail rail_electric rail_fast ship" speed="7.98" length="10.13" shape="365.90,404.99 368.82,404.30 371.22,402.17 372.89,398.63"/>
    </edge>
    <edge id=":108209_19" function="internal">
        <lane id=":108209_19_0" index="0" disallow="tram rail_urban rail rail_electric rail_fast ship" speed="3.65" length="3.23" shape="363.21,403.97 363.84,403.34 363.71,402.45 362.81,401.32"/>
    </edge>
    <edge id=":108215_0" function="internal">
        <lane id=":108215_0_0" index="0" disallow="tram rail_urban rail rail_electric rail_fast ship" speed="3.65" length="4.67" shape="445.88,325.62 447.26,325.21 447.88,324.56 447.73,323.68 446.81,322.56"/>
    </edge>
    <edge id=":108216_0" function="internal">
        <lane id=":108216_0_0" index="0" disallow="tram rail_urban rail rail_electric rail_fast ship" speed="8.94" length="14.38" shape="410.61,311.58 396.86,307.38"/>
    </edge>
    <edge id=":108216_1" function="internal">
        <lane id=":108216_1_0" index="0" disallow="tram rail_urban rail rail_electric rail_fast ship" speed="8.20" length="14.26" shape="410.61,311.58 406.85,311.03 403.72,311.82 401.23,313.96 399.38,317.45"/>
    </edge>
    <edge id=":108216_2" function="internal">
        <lane id=":108216_2_0" index="0" disallow="tram rail_urban rail rail_electric rail_fast ship" speed="3.65" length="4.67" shape="410.61,311.58 409.23,312.00 408.61,312.65 408.77,313.53 409.68,314.64"/>
    </edge>
    <edge id=":108216_3" function="internal">
        <lane id=":108216_3_0" index="0" disallow="tram rail_urban rail rail_electric rail_fast ship" speed="6.75" length="9.33" shape="402.38,318.56 403.60,316.25 405.22,314.83 407.25,314.29 409.68,314.64"/>
    </edge>
    <edge id=":108216_4" function="internal">
        <lane id=":108216_4_0" index="0" disallow="tram rail_urban rail rail_electric rail_fast ship" speed="7.91" length="14.40" shape="402.38,318.56 403.21,314.67 402.57,311.51 400.45,309.08 396.86,307.38"/>
    </edge>
    <edge id=":108216_5" function="internal">
        <lane id=":108216_5_0" index="0" disallow="tram rail_urban rail rail_electric rail_fast ship" speed="3.65" length="4.67" shape="402.38,318.56 402.04,317.16 401.43,316.51 400.54,316.61 399.38,317.45"/>
    </edge>
    <edge id=":108216_6" function="internal">
        <lane id=":108216_6_0" index="0" disallow="tram rail_urban rail rail_electric rail_fast ship" speed="6.39" length="9.04" shape="395.91,310.44 398.17,311.51 399.50,313.03 399.90,315.01 399.38,317.45"/>
    </edge>
    <edge id=":108216_7" function="internal">
        <lane id=":108216_7_0" index="0" disallow="tram rail_urban rail rail_electric rail_fast ship" speed="8.94" length="14.40" shape="395.91,310.44 409.68,314.64"/>
    </edge>
    <edge id=":108216_8" function="internal">
        <lane id=":108216_8_0" index="0" disallow="tram rail_urban rail rail_electric rail_fast ship" speed="3.65" length="4.67" shape="395.91,310.44 397.30,310.03 397.91,309.38 397.77,308.50 396.86,307.38"/>
    </edge>
    <edge id=":110005_0" function="internal">
        <lane id=":110005_0_0" index="0" disallow="tram rail_urban rail rail_electric rail_fast ship" speed="3.65" length="4.67" shape="86.53,527.77 86.89,529.17 87.51,529.81 88.40,529.70 89.55,528.83"/>
    </edge>
    <edge id=":110007_0" function="internal">
        <lane id=":110007_0_0" index="0" disallow="tram rail_urban rail rail_electric rail_fast ship" speed="6.47" length="9.03" shape="129.44,390.99 128.38,393.23 126.86,394.58 124.88,395.05 122.43,394.62"/>
    </edge>
    <edge id=":110007_1" function="internal">
        <lane id=":110007_1_0" index="0" disallow="tram rail_urban rail rail_electric rail_fast ship" speed="8.94" length="14.58" shape="129.44,390.99 125.00,404.84"/>
        <lane id=":110007_1_1" index="1" disallow="tram rail_urban rail rail_electric rail_fast ship" speed="8.94" length="14.58" shape="132.50,391.94 128.03,405.86"/>
    </edge>
    <edge id=":110007_3" function="internal">
        <lane id=":110007_3_0" index="0" disallow="tram rail_urban rail rail_electric rail_fast ship" speed="3.65" length="1.44" shape="132.50,391.94 132.91,393.32"/>
    </edge>
    <edge id=":110007_11" function="internal">
        <lane id=":110007_11_0" index="0" disallow="tram rail_urban rail rail_electric rail_fast ship" speed="3.65" length="3.23" shape="132.91,393.32 133.55,393.94 134.44,393.79 135.56,392.88"/>
    </edge>
    <edge id=":110007_4" function="internal">
        <lane id=":110007_4_0" index="0" disallow="tram rail_urban rail rail_electric rail_fast ship" speed="6.84" length="9.57" shape="139.30,400.53 137.02,399.26 135.63,397.57 135.15,395.44 135.56,392.88"/>
    </edge>
    <edge id=":110007_5" function="internal">
        <lane id=":110007_5_0" index="0" disallow="tram rail_urban rail rail_electric rail_fast ship" speed="8.94" length="17.88" shape="139.30,400.53 122.43,394.62"/>
    </edge>
    <edge id=":110007_6" function="internal">
        <lane id=":110007_6_0" index="0" disallow="tram rail_urban rail rail_electric rail_fast ship" speed="7.20" length="11.84" shape="138.15,403.52 134.38,402.46 131.44,402.49 129.32,403.63 128.03,405.86"/>
    </edge>
    <edge id=":110007_7" function="internal">
        <lane id=":110007_7_0" index="0" disallow="tram rail_urban rail rail_electric rail_fast ship" speed="8.94" length="14.69" shape="131.07,406.87 135.56,392.88"/>
    </edge>
    <edge id=":110007_8" function="internal">
        <lane id=":110007_8_0" index="0" disallow="tram rail_urban rail rail_electric rail_fast ship" speed="8.73" length="3.74" shape="131.07,406.87 131.51,403.16"/>
    </edge>
    <edge id=":110007_9" function="internal">
        <lane id=":110007_9_0" index="0" disallow="tram rail_urban rail rail_electric rail_fast ship" speed="3.65" length="1.44" shape="131.07,406.87 130.69,405.48"/>
    </edge>
    <edge id=":110007_12" function="internal">
        <lane id=":110007_12_0" index="0" disallow="tram rail_urban rail rail_electric rail_fast ship" speed="8.73" length="13.22" shape="131.51,403.16 131.54,402.90 130.25,399.53 127.22,396.77 122.43,394.62"/>
    </edge>
    <edge id=":110007_13" function="internal">
        <lane id=":110007_13_0" index="0" disallow="tram rail_urban rail rail_electric rail_fast ship" speed="3.65" length="3.23" shape="130.69,405.48 130.06,404.84 129.17,404.97 128.03,405.86"/>
    </edge>
    <edge id=":110007_10" function="internal">
        <lane id=":110007_10_0" index="0" disallow="tram rail_urban rail rail_electric rail_fast ship" speed="6.56" length="9.12" shape="121.44,397.66 123.64,398.75 124.97,400.32 125.42,402.35 125.00,404.84"/>
    </edge>
    <edge id=":110008_0" function="internal">
        <lane id=":110008_0_0" index="0" disallow="tram rail_urban rail rail_electric rail_fast ship" speed="6.42" length="9.04" shape="298.19,373.34 297.21,375.63 295.73,377.02 293.77,377.51 291.31,377.11"/>
    </edge>
    <edge id=":110008_1" function="internal">
        <lane id=":110008_1_0" index="0" disallow="tram rail_urban rail rail_electric rail_fast ship" speed="8.94" length="14.53" shape="298.19,373.34 293.98,387.24"/>
    </edge>
    <edge id=":110008_2" function="internal">
        <lane id=":110008_2_0" index="0" disallow="tram rail_urban rail rail_electric rail_fast ship" speed="8.94" length="3.38" shape="298.19,373.34 297.92,376.71"/>
    </edge>
    <edge id=":110008_3" function="internal">
        <lane id=":110008_3_0" index="0" disallow="tram rail_urban rail rail_electric rail_fast ship" speed="3.65" length="1.44" shape="298.19,373.34 298.65,374.71"/>
    </edge>
    <edge id=":110008_17" function="internal">
        <lane id=":110008_17_0" index="0" disallow="tram rail_urban rail rail_electric rail_fast ship" speed="8.94" length="13.84" shape="297.92,376.71 297.87,377.39 299.25,380.82 302.35,383.62 307.15,385.80"/>
    </edge>
    <edge id=":110008_18" function="internal">
        <lane id=":110008_18_0" index="0" disallow="tram rail_urban rail rail_electric rail_fast ship" speed="3.65" length="3.23" shape="298.65,374.71 299.32,375.30 300.20,375.13 301.28,374.18"/>
    </edge>
    <edge id=":110008_4" function="internal">